Circuit: * C:\Users\matta\OneDrive\Uni\QUT\Y3S1\EGB240\TwoToneBuzzer\TwoTone(PNPTrans).asc

Warning: Multiple definitions of model "2scr375p" Type: BJT
Warning: Multiple definitions of model "bc857b" Type: BJT
Warning: Multiple definitions of model "bc847c" Type: BJT
Warning: Multiple definitions of model "bc847b" Type: BJT
v1: both pins shorted together -- ignoring.
WARNING: Node N001 is floating.

Per .tran options, skipping operating point for transient analysis.
Changing Tseed to 1e-08
Changing Tseed to 1e-10
Changing Tseed to 1e-07
Changing Tseed to 1e-11
Changing Tseed to 1e-06
Changing Tseed to 1e-12
Heightened Def Con from 0.000163699 to 0.000163699
Heightened Def Con from 0.000163699 +++++++++++++to 0.000163699
Heightened Def Con from 0.000163699 +++++++++++++to 0.000163699
Heightened Def Con from 0.000163699 +++++++++++++to 0.000163699
Heightened Def Con from 0.000163699 ++++++++++++++++++++++++++++++++++++++++++++++++++Fatal Error: Analysis:  Time step too small; time = 0.000163699, timestep = 1.25e-19: trouble with schmitt-instance a3

