Circuit: * C:\Users\matta\OneDrive\Uni\QUT\Y3S1\EGB240\TwoToneBuzzer\TwoTone(NPNTrans).asc

Warning: Multiple definitions of model "2scr375p" Type: BJT
Warning: Multiple definitions of model "bc857b" Type: BJT
Warning: Multiple definitions of model "bc847c" Type: BJT
Warning: Multiple definitions of model "bc847b" Type: BJT
Per .tran options, skipping operating point for transient analysis.
Changing Tseed to 1e-08
Changing Tseed to 1e-10
Changing Tseed to 1e-07
Changing Tseed to 1e-11
Changing Tseed to 1e-06
Changing Tseed to 1e-12
Changing Tseed to 1e-05
Heightened Def Con from 0.000109945 ++++++++++++++++++++++++++++to 0.000109946
Heightened Def Con from 0.000127425 ++++++++++++++++++++++++++++to 0.000127426
Heightened Def Con from 0.000127426 +++++++++++++++++++++++++++to 0.000127426
Heightened Def Con from 0.000127426 ++++++++++++++++++++++++++++to 0.000127427
Heightened Def Con from 0.000127427 ++++++++++++++++++++++++++++to 0.000127428
Heightened Def Con from 0.000127428 ++++++++++++++++++++++++++++to 0.000127429
Heightened Def Con from 0.00012743 +++++++++++++++++++++++++++to 0.00012743
Heightened Def Con from 0.00012743 ++++++++++++++++++++++++++++to 0.000127431
Heightened Def Con from 0.000127431 ++++++++++++++++++++++++++++to 0.000127432
Heightened Def Con from 0.000127432 ++++++++++++++++++++++++to 0.000127432
Heightened Def Con from 0.000127432 ++++++++++++++++++++++++++++to 0.000127433
Heightened Def Con from 0.000127433 ++++++++++++++++++++++++++++to 0.000127434
Heightened Def Con from 0.000127435 ++++++++++++++++++++++++++++to 0.000127436
Heightened Def Con from 0.000127436 ++++++++++++++++++++++++++++to 0.000127437
Heightened Def Con from 0.000127437 +++++++++++++++++++++++++++to 0.000127437
Heightened Def Con from 0.000127437 ++++++++++++++++++++++++++++to 0.000127438
Heightened Def Con from 0.000127438 ++++++++++++++++++++++++to 0.000127438
Heightened Def Con from 0.000127438 ++++++++++++++++++++++++++++to 0.000127439
Heightened Def Con from 0.00012744 +++++++++++++++++++++++++++to 0.00012744
Heightened Def Con from 0.00012744 ++++++++++++++++++++++++++++to 0.000127441
Heightened Def Con from 0.000127441 +++++++++++++++++++++++++++to 0.000127441
Heightened Def Con from 0.000127441 ++++++++++++++++++++++++++++to 0.000127442
Heightened Def Con from 0.000127442 +++++++++++++++++++++++++++to 0.000127442
Heightened Def Con from 0.000127442 ++++++++++++++++++++++++++++to 0.000127443
Heightened Def Con from 0.000127443 ++++++++++++++++++++++++++++to 0.000127444
Heightened Def Con from 0.000127445 ++++++++++++++++++++++++++++to 0.000127446
Heightened Def Con from 0.000127446 ++++++++++++++++++++++++++++to 0.000127447
Heightened Def Con from 0.000127447 +++++++++++++++++++++++++++to 0.000127447
Heightened Def Con from 0.000127447 ++++++++++++++++++++++++++++to 0.000127448
Heightened Def Con from 0.000127448 +++++++++++++++++++++++++++to 0.000127448
Heightened Def Con from 0.000127448 ++++++++++++++++++++++++++++to 0.000127449
Heightened Def Con from 0.00012745 +++++++++++++++++++++++++to 0.00012745
Heightened Def Con from 0.00012745 ++++++++++++++++++++++++++++to 0.000127451
Heightened Def Con from 0.000127451 +++++++++++++++++++++++to 0.000127451
Heightened Def Con from 0.000127451 ++++++++++++++++++++++++++++to 0.000127452
Heightened Def Con from 0.000127452 ++++++++++++++++++++++++to 0.000127452
Heightened Def Con from 0.000127452 ++++++++++++++++++++++++++++to 0.000127453
Heightened Def Con from 0.000127453 +++++++++++++++++++++++++++to 0.000127453
Heightened Def Con from 0.000127453 ++++++++++++++++++++++++++++to 0.000127454
Heightened Def Con from 0.000127455 ++++++++++++++++++++++++++++to 0.000127456
Heightened Def Con from 0.000127456 ++++++++++++++++++++++++to 0.000127456
Heightened Def Con from 0.000127456 ++++++++++++++++++++++++++++to 0.000127457
Heightened Def Con from 0.000127457 +++++++++++++++++++++++++to 0.000127457
Heightened Def Con from 0.000127457 ++++++++++++++++++++++++++++to 0.000127458
Heightened Def Con from 0.000127458 ++++++++++++++++++++++++++++to 0.000127459
Heightened Def Con from 0.00012746 +++++++++++++++++++to 0.00012746
Heightened Def Con from 0.00012746 ++++++++++++++++++++++++++++to 0.000127461
Heightened Def Con from 0.000127461 ++++++++++++++++++++++++++++to 0.000127462
Heightened Def Con from 0.000127462 ++++++++++++++++++++++++++to 0.000127462
Heightened Def Con from 0.000127462 ++++++++++++++++++++++++++++to 0.000127463
Heightened Def Con from 0.000127463 ++++++++++++++++++++++++++to 0.000127463
Heightened Def Con from 0.000127463 ++++++++++++++++++++++++++++to 0.000127464
Heightened Def Con from 0.000127465 ++++++++++++++++++++++++++++to 0.000127466
Heightened Def Con from 0.000127466 +++++++++++++++++++++++++to 0.000127466
Heightened Def Con from 0.000127466 ++++++++++++++++++++++++++++to 0.000127467
Heightened Def Con from 0.000127467 +++++++++++++++++++++++++++to 0.000127467
Heightened Def Con from 0.000127467 ++++++++++++++++++++++++++++to 0.000127468
Heightened Def Con from 0.000127468 ++++++++++++++++++++++++++to 0.000127468
Heightened Def Con from 0.000127468 ++++++++++++++++++++++++++++to 0.000127469
Heightened Def Con from 0.00012747 +++++++++++++++++++++++++++to 0.00012747
Heightened Def Con from 0.00012747 ++++++++++++++++++++++++++++to 0.000127471
Heightened Def Con from 0.000127471 +++++++++++++++++++++to 0.000127471
Heightened Def Con from 0.000127471 ++++++++++++++++++++++++++++to 0.000127472
Heightened Def Con from 0.000127472 +++++++++++++++++++++++++++to 0.000127472
Heightened Def Con from 0.000127472 ++++++++++++++++++++++++++++to 0.000127473
Heightened Def Con from 0.000127473 +++++++++++++++++++++++++++to 0.000127473
Heightened Def Con from 0.000127473 ++++++++++++++++++++++++++++to 0.000127474
Heightened Def Con from 0.000127475 +++++++++++++++++++++++++++to 0.000127475
Heightened Def Con from 0.000127475 ++++++++++++++++++++++++++++to 0.000127476
Heightened Def Con from 0.000127476 ++++++++++++++++++++++++++++to 0.000127477
Heightened Def Con from 0.000127477 ++++++++++++++++++++++++++++to 0.000127478
Heightened Def Con from 0.000127478 +++++++++++++++++++++++++to 0.000127478
Heightened Def Con from 0.000127478 ++++++++++++++++++++++++++++to 0.000127479
Heightened Def Con from 0.00012748 +++++++++++++++++++++++++++to 0.00012748
Heightened Def Con from 0.00012748 ++++++++++++++++++++++++++++to 0.000127481
Heightened Def Con from 0.000127481 ++++++++++++++++++++++++to 0.000127481
Heightened Def Con from 0.000127481 ++++++++++++++++++++++++++++to 0.000127482
Heightened Def Con from 0.000127482 +++++++++++++++++++++++to 0.000127482
Heightened Def Con from 0.000127482 ++++++++++++++++++++++++++++to 0.000127483
Heightened Def Con from 0.000127483 +++++++++++++++++++++++++to 0.000127483
Heightened Def Con from 0.000127483 ++++++++++++++++++++++++++++to 0.000127484
Heightened Def Con from 0.000127485 ++++++++++++++++++++++++++to 0.000127485
Heightened Def Con from 0.000127485 ++++++++++++++++++++++++++++to 0.000127486
Heightened Def Con from 0.000127486 +++++++++++++++++++++++++to 0.000127486
Heightened Def Con from 0.000127486 ++++++++++++++++++++++++++++to 0.000127487
Heightened Def Con from 0.000127487 +++++++++++++++++++++++++++to 0.000127487
Heightened Def Con from 0.000127487 ++++++++++++++++++++++++++++to 0.000127488
Heightened Def Con from 0.000127488 ++++++++++++++++++++++++++++to 0.000127489
Heightened Def Con from 0.00012749 +++++++++++++++++++++++++++to 0.00012749
Heightened Def Con from 0.00012749 ++++++++++++++++++++++++++++to 0.000127491
Heightened Def Con from 0.000127491 ++++++++++++++++++++++++++to 0.000127491
Heightened Def Con from 0.000127491 ++++++++++++++++++++++++++++to 0.000127492
Heightened Def Con from 0.000127492 +++++++++++++++++++++++++++to 0.000127492
Heightened Def Con from 0.000127492 ++++++++++++++++++++++++++++to 0.000127493
Heightened Def Con from 0.000127493 +++++++++++++++++++++++++++to 0.000127493
Heightened Def Con from 0.000127493 ++++++++++++++++++++++++++++to 0.000127494
Heightened Def Con from 0.000127494 ++++++++++++++++++++++++++++to 0.000127495
Heightened Def Con from 0.000127496 +++++++++++++++++++++++++to 0.000127496
Heightened Def Con from 0.000127496 ++++++++++++++++++++++++++++to 0.000127497
Heightened Def Con from 0.000127497 ++++++++++++++++++++++++to 0.000127497
Heightened Def Con from 0.000127497 ++++++++++++++++++++++++++++to 0.000127498
Heightened Def Con from 0.000127498 ++++++++++++++++++++++++to 0.000127498
Heightened Def Con from 0.000127498 ++++++++++++++++++++++++++++to 0.000127499
Heightened Def Con from 0.000127499 +++++++++++++++++++++++++++to 0.000127499
Heightened Def Con from 0.000127499 ++++++++++++++++++++++++++++to 0.0001275
Heightened Def Con from 0.000127501 +++++++++++++++++++++++++to 0.000127501
Heightened Def Con from 0.000127501 ++++++++++++++++++++++++++++to 0.000127502
Heightened Def Con from 0.000127502 +++++++++++++++++++++++++++to 0.000127502
Heightened Def Con from 0.000127502 ++++++++++++++++++++++++++++to 0.000127503
Heightened Def Con from 0.000127503 ++++++++++++++++++++++++++++to 0.000127504
Heightened Def Con from 0.000127504 +++++++++++++++++++++++++to 0.000127504
Heightened Def Con from 0.000127504 ++++++++++++++++++++++++++++to 0.000127505
Heightened Def Con from 0.000127506 +++++++++++++++++++++++++++to 0.000127506
Heightened Def Con from 0.000127506 ++++++++++++++++++++++++++++to 0.000127507
Heightened Def Con from 0.000127507 ++++++++++++++++++++++++++++to 0.000127508
Heightened Def Con from 0.000127508 +++++++++++++++++++++++++++to 0.000127508
Heightened Def Con from 0.000127508 ++++++++++++++++++++++++++++to 0.000127509
Heightened Def Con from 0.000127509 ++++++++++++++++++++++++++++to 0.00012751
Heightened Def Con from 0.000127511 +++++++++++++++++++++++++++to 0.000127511
Heightened Def Con from 0.000127511 ++++++++++++++++++++++++++++to 0.000127512
Heightened Def Con from 0.000127512 +++++++++++++++++++++++++++to 0.000127512
Heightened Def Con from 0.000127512 ++++++++++++++++++++++++++++to 0.000127513
Heightened Def Con from 0.000127513 +++++++++++++++++++++++++++to 0.000127513
Heightened Def Con from 0.000127513 ++++++++++++++++++++++++++++to 0.000127514
Heightened Def Con from 0.000127514 +++++++++++++++++++++++++++to 0.000127514
Heightened Def Con from 0.000127514 ++++++++++++++++++++++++++++to 0.000127515
Heightened Def Con from 0.000127516 ++++++++++++++++++++++++++++to 0.000127517
Heightened Def Con from 0.000127517 ++++++++++++++++++++++++++to 0.000127517
Heightened Def Con from 0.000127517 ++++++++++++++++++++++++++++to 0.000127518
Heightened Def Con from 0.000127518 ++++++++++++++++++++++++++++to 0.000127519
Heightened Def Con from 0.000127519 +++++++++++++++++++++++++++to 0.000127519
Heightened Def Con from 0.000127519 ++++++++++++++++++++++++++++to 0.00012752
Heightened Def Con from 0.000127521 +++++++++++++++++++++++++++to 0.000127521
Heightened Def Con from 0.000127521 ++++++++++++++++++++++++++++to 0.000127522
Heightened Def Con from 0.000127522 +++++++++++++++++++++++++++to 0.000127522
Heightened Def Con from 0.000127522 ++++++++++++++++++++++++++++to 0.000127523
Heightened Def Con from 0.000127523 ++++++++++++++++++++++++++++to 0.000127524
Heightened Def Con from 0.000127524 ++++++++++++++++++++++++++to 0.000127524
Heightened Def Con from 0.000127524 ++++++++++++++++++++++++++++to 0.000127525
Heightened Def Con from 0.000127526 +++++++++++++++++++++++++++to 0.000127526
Heightened Def Con from 0.000127526 ++++++++++++++++++++++++++++to 0.000127527
Heightened Def Con from 0.000127527 ++++++++++++++++++++++++to 0.000127527
Heightened Def Con from 0.000127527 ++++++++++++++++++++++++++++to 0.000127528
Heightened Def Con from 0.000127528 ++++++++++++++++++++++++++to 0.000127528
Heightened Def Con from 0.000127528 ++++++++++++++++++++++++++++to 0.000127529
Heightened Def Con from 0.000127529 ++++++++++++++++++++++++++++to 0.00012753
Heightened Def Con from 0.000127531 ++++++++++++++++++++++++++to 0.000127531
Heightened Def Con from 0.000127531 ++++++++++++++++++++++++++++to 0.000127532
Heightened Def Con from 0.000127532 ++++++++++++++++++++++++++++to 0.000127533
Heightened Def Con from 0.000127533 ++++++++++++++++++++++++to 0.000127533
Heightened Def Con from 0.000127533 ++++++++++++++++++++++++++++to 0.000127534
Heightened Def Con from 0.000127534 +++++++++++++++++++++++++to 0.000127534
Heightened Def Con from 0.000127534 ++++++++++++++++++++++++++++to 0.000127535
Heightened Def Con from 0.000127536 ++++++++++++++++++++++++++++to 0.000127537
Heightened Def Con from 0.000127537 ++++++++++++++++++++++++++++to 0.000127538
Heightened Def Con from 0.000127538 +++++++++++++++++++++++++++to 0.000127538
Heightened Def Con from 0.000127538 ++++++++++++++++++++++++++++to 0.000127539
Heightened Def Con from 0.000127539 +++++++++++++++++++++++++++to 0.000127539
Heightened Def Con from 0.000127539 ++++++++++++++++++++++++++++to 0.00012754
Heightened Def Con from 0.000127541 +++++++++++++++++++++++++to 0.000127541
Heightened Def Con from 0.000127541 ++++++++++++++++++++++++++++to 0.000127542
Heightened Def Con from 0.000127542 ++++++++++++++++++++++++++++to 0.000127543
Heightened Def Con from 0.000127543 ++++++++++++++++++++++++++to 0.000127543
Heightened Def Con from 0.000127543 ++++++++++++++++++++++++++++to 0.000127544
Heightened Def Con from 0.000127544 +++++++++++++++++++++++++to 0.000127544
Heightened Def Con from 0.000127544 ++++++++++++++++++++++++++++to 0.000127545
Heightened Def Con from 0.000127546 +++++++++++++++++++++++++++to 0.000127546
Heightened Def Con from 0.000127546 ++++++++++++++++++++++++++++to 0.000127547
Heightened Def Con from 0.000127547 ++++++++++++++++++++++++++++to 0.000127548
Heightened Def Con from 0.000127548 ++++++++++++++++++++++++++to 0.000127548
Heightened Def Con from 0.000127548 ++++++++++++++++++++++++++++to 0.000127549
Heightened Def Con from 0.000127549 +++++++++++++++++++++++++++to 0.000127549
Heightened Def Con from 0.000127549 ++++++++++++++++++++++++++++to 0.00012755
Heightened Def Con from 0.000127551 ++++++++++++++++++++++++to 0.000127551
Heightened Def Con from 0.000127551 ++++++++++++++++++++++++++++to 0.000127552
Heightened Def Con from 0.000127552 +++++++++++++++++++++++++++to 0.000127552
Heightened Def Con from 0.000127552 ++++++++++++++++++++++++++++to 0.000127553
Heightened Def Con from 0.000127553 ++++++++++++++++++++++++++++to 0.000127554
Heightened Def Con from 0.000127554 ++++++++++++++++++++++++++++to 0.000127555
Heightened Def Con from 0.000127556 +++++++++++++++++++++++++++to 0.000127556
Heightened Def Con from 0.000127556 ++++++++++++++++++++++++++++to 0.000127557
Heightened Def Con from 0.000127557 ++++++++++++++++++++++++to 0.000127557
Heightened Def Con from 0.000127557 ++++++++++++++++++++++++++++to 0.000127558
Heightened Def Con from 0.000127558 +++++++++++++++++++++++++++to 0.000127558
Heightened Def Con from 0.000127558 ++++++++++++++++++++++++++++to 0.000127559
Heightened Def Con from 0.000127559 ++++++++++++++++++++++++++to 0.000127559
Heightened Def Con from 0.000127559 ++++++++++++++++++++++++++++to 0.00012756
Heightened Def Con from 0.000127561 +++++++++++++++++++++++++to 0.000127561
Heightened Def Con from 0.000127561 ++++++++++++++++++++++++++++to 0.000127562
Heightened Def Con from 0.000127562 ++++++++++++++++++++++++++++to 0.000127563
Heightened Def Con from 0.000127563 ++++++++++++++++++++++++++++to 0.000127564
Heightened Def Con from 0.000127564 +++++++++++++++++++++++++to 0.000127564
Heightened Def Con from 0.000127564 ++++++++++++++++++++++++++++to 0.000127565
Heightened Def Con from 0.000127566 +++++++++++++++++++++++++to 0.000127566
Heightened Def Con from 0.000127566 ++++++++++++++++++++++++++++to 0.000127567
Heightened Def Con from 0.000127567 ++++++++++++++++++++++++++to 0.000127567
Heightened Def Con from 0.000127567 ++++++++++++++++++++++++++++to 0.000127568
Heightened Def Con from 0.000127568 +++++++++++++++++++++++++to 0.000127568
Heightened Def Con from 0.000127568 ++++++++++++++++++++++++++++to 0.000127569
Heightened Def Con from 0.000127569 +++++++++++++++++++++++++to 0.000127569
Heightened Def Con from 0.000127569 ++++++++++++++++++++++++++++to 0.00012757
Heightened Def Con from 0.000127571 +++++++++++++++++++++++++++to 0.000127571
Heightened Def Con from 0.000127571 ++++++++++++++++++++++++++++to 0.000127572
Heightened Def Con from 0.000127572 ++++++++++++++++++++++++++to 0.000127572
Heightened Def Con from 0.000127572 ++++++++++++++++++++++++++++to 0.000127573
Heightened Def Con from 0.000127573 ++++++++++++++++++++++++to 0.000127573
Heightened Def Con from 0.000127573 ++++++++++++++++++++++++++++to 0.000127574
Heightened Def Con from 0.000127574 ++++++++++++++++++++++++++++to 0.000127575
Heightened Def Con from 0.000127576 +++++++++++++++++++++++++to 0.000127576
Heightened Def Con from 0.000127576 ++++++++++++++++++++++++++++to 0.000127577
Heightened Def Con from 0.000127577 +++++++++++++++++++++++++to 0.000127577
Heightened Def Con from 0.000127577 ++++++++++++++++++++++++++++to 0.000127578
Heightened Def Con from 0.000127578 ++++++++++++++++++++++++to 0.000127578
Heightened Def Con from 0.000127578 ++++++++++++++++++++++++++++to 0.000127579
Heightened Def Con from 0.000127579 +++++++++++++++++++++++++++to 0.000127579
Heightened Def Con from 0.000127579 ++++++++++++++++++++++++++++to 0.00012758
Heightened Def Con from 0.000127581 +++++++++++++++++++++++++to 0.000127581
Heightened Def Con from 0.000127581 ++++++++++++++++++++++++++++to 0.000127582
Heightened Def Con from 0.000127582 ++++++++++++++++++++++++++to 0.000127582
Heightened Def Con from 0.000127582 ++++++++++++++++++++++++++++to 0.000127583
Heightened Def Con from 0.000127583 ++++++++++++++++++++++++++++to 0.000127584
Heightened Def Con from 0.000127584 ++++++++++++++++++++++++++++to 0.000127585
Heightened Def Con from 0.000127586 +++++++++++++++++++++++++++to 0.000127586
Heightened Def Con from 0.000127586 ++++++++++++++++++++++++++++to 0.000127587
Heightened Def Con from 0.000127587 ++++++++++++++++++++++++++++to 0.000127588
Heightened Def Con from 0.000127588 ++++++++++++++++++++++++++to 0.000127588
Heightened Def Con from 0.000127588 ++++++++++++++++++++++++++++to 0.000127589
Heightened Def Con from 0.000127589 +++++++++++++++++++++++++++to 0.000127589
Heightened Def Con from 0.000127589 ++++++++++++++++++++++++++++to 0.00012759
Heightened Def Con from 0.000127591 ++++++++++++++++++++++++to 0.000127591
Heightened Def Con from 0.000127591 ++++++++++++++++++++++++++++to 0.000127592
Heightened Def Con from 0.000127592 ++++++++++++++++++++++++++++to 0.000127593
Heightened Def Con from 0.000127593 +++++++++++++++++++++++++++to 0.000127593
Heightened Def Con from 0.000127593 ++++++++++++++++++++++++++++to 0.000127594
Heightened Def Con from 0.000127594 +++++++++++++++++++++++++to 0.000127594
Heightened Def Con from 0.000127594 ++++++++++++++++++++++++++++to 0.000127595
Heightened Def Con from 0.000127596 +++++++++++++++++++++++++++to 0.000127596
Heightened Def Con from 0.000127596 ++++++++++++++++++++++++++++to 0.000127597
Heightened Def Con from 0.000127597 +++++++++++++++++++++++++to 0.000127597
Heightened Def Con from 0.000127597 ++++++++++++++++++++++++++++to 0.000127598
Heightened Def Con from 0.000127598 +++++++++++++++++++++++++++to 0.000127598
Heightened Def Con from 0.000127598 ++++++++++++++++++++++++++++to 0.000127599
Heightened Def Con from 0.000127599 +++++++++++++++++++++++++++to 0.000127599
Heightened Def Con from 0.000127599 ++++++++++++++++++++++++++++to 0.0001276
Heightened Def Con from 0.0001276 ++++++++++++++++++++++++++++to 0.000127601
Heightened Def Con from 0.000127602 ++++++++++++++++++++++++++++to 0.000127603
Heightened Def Con from 0.000127603 ++++++++++++++++++++++++++to 0.000127603
Heightened Def Con from 0.000127603 ++++++++++++++++++++++++++++to 0.000127604
Heightened Def Con from 0.000127604 +++++++++++++++++++++++++++to 0.000127604
Heightened Def Con from 0.000127604 ++++++++++++++++++++++++++++to 0.000127605
Heightened Def Con from 0.000127605 +++++++++++++++++++++++++++to 0.000127605
Heightened Def Con from 0.000127605 ++++++++++++++++++++++++++++to 0.000127606
Heightened Def Con from 0.000127607 +++++++++++++++++++++++++++to 0.000127607
Heightened Def Con from 0.000127607 ++++++++++++++++++++++++++++to 0.000127608
Heightened Def Con from 0.000127608 ++++++++++++++++++++++++++++to 0.000127609
Heightened Def Con from 0.000127609 ++++++++++++++++++++++++++++to 0.00012761
Heightened Def Con from 0.00012761 ++++++++++++++++++++++++++++to 0.000127611
Heightened Def Con from 0.000127612 ++++++++++++++++++++++++++++to 0.000127613
Heightened Def Con from 0.000127613 +++++++++++++++++++++++++++to 0.000127613
Heightened Def Con from 0.000127613 ++++++++++++++++++++++++++++to 0.000127614
Heightened Def Con from 0.000127614 ++++++++++++++++++++++++++++to 0.000127615
Heightened Def Con from 0.000127615 ++++++++++++++++++++++++++++to 0.000127616
Heightened Def Con from 0.000127617 ++++++++++++++++++++++++++to 0.000127617
Heightened Def Con from 0.000127617 ++++++++++++++++++++++++++++to 0.000127618
Heightened Def Con from 0.000127618 +++++++++++++++++++++++to 0.000127618
Heightened Def Con from 0.000127618 ++++++++++++++++++++++++++++to 0.000127619
Heightened Def Con from 0.000127619 +++++++++++++++++++++++++++to 0.000127619
Heightened Def Con from 0.000127619 ++++++++++++++++++++++++++++to 0.00012762
Heightened Def Con from 0.00012762 +++++++++++++++++++++++++++to 0.00012762
Heightened Def Con from 0.00012762 ++++++++++++++++++++++++++++to 0.000127621
Heightened Def Con from 0.000127622 +++++++++++++++++++++++++++to 0.000127622
Heightened Def Con from 0.000127622 ++++++++++++++++++++++++++++to 0.000127623
Heightened Def Con from 0.000127623 ++++++++++++++++++++++++++++to 0.000127624
Heightened Def Con from 0.000127624 +++++++++++++++++++++++++++to 0.000127624
Heightened Def Con from 0.000127624 ++++++++++++++++++++++++++++to 0.000127625
Heightened Def Con from 0.000127625 +++++++++++++++++++++++++to 0.000127625
Heightened Def Con from 0.000127625 ++++++++++++++++++++++++++++to 0.000127626
Heightened Def Con from 0.000127627 +++++++++++++++++++++++++++to 0.000127627
Heightened Def Con from 0.000127627 ++++++++++++++++++++++++++++to 0.000127628
Heightened Def Con from 0.000127628 ++++++++++++++++++++++++++to 0.000127628
Heightened Def Con from 0.000127628 ++++++++++++++++++++++++++++to 0.000127629
Heightened Def Con from 0.000127629 +++++++++++++++++++++++++to 0.000127629
Heightened Def Con from 0.000127629 ++++++++++++++++++++++++++++to 0.00012763
Heightened Def Con from 0.00012763 ++++++++++++++++++++++++++to 0.00012763
Heightened Def Con from 0.00012763 ++++++++++++++++++++++++++++to 0.000127631
Heightened Def Con from 0.000127632 ++++++++++++++++++++++++++to 0.000127632
Heightened Def Con from 0.000127632 ++++++++++++++++++++++++++++to 0.000127633
Heightened Def Con from 0.000127633 +++++++++++++++++++++++++++to 0.000127633
Heightened Def Con from 0.000127633 ++++++++++++++++++++++++++++to 0.000127634
Heightened Def Con from 0.000127634 +++++++++++++++++++++++to 0.000127634
Heightened Def Con from 0.000127634 ++++++++++++++++++++++++++++to 0.000127635
Heightened Def Con from 0.000127635 ++++++++++++++++++++++++++++to 0.000127636
Heightened Def Con from 0.000127637 ++++++++++++++++++++++++++to 0.000127637
Heightened Def Con from 0.000127637 ++++++++++++++++++++++++++++to 0.000127638
Heightened Def Con from 0.000127638 ++++++++++++++++++++++++++to 0.000127638
Heightened Def Con from 0.000127638 ++++++++++++++++++++++++++++to 0.000127639
Heightened Def Con from 0.000127639 +++++++++++++++++++++++++to 0.000127639
Heightened Def Con from 0.000127639 ++++++++++++++++++++++++++++to 0.00012764
Heightened Def Con from 0.00012764 +++++++++++++++++++++++++++to 0.00012764
Heightened Def Con from 0.00012764 ++++++++++++++++++++++++++++to 0.000127641
Heightened Def Con from 0.000127642 ++++++++++++++++++++++++++++to 0.000127643
Heightened Def Con from 0.000127643 ++++++++++++++++++++++++++to 0.000127643
Heightened Def Con from 0.000127643 ++++++++++++++++++++++++++++to 0.000127644
Heightened Def Con from 0.000127644 +++++++++++++++++++++++++++to 0.000127644
Heightened Def Con from 0.000127644 ++++++++++++++++++++++++++++to 0.000127645
Heightened Def Con from 0.000127645 ++++++++++++++++++++++++++to 0.000127645
Heightened Def Con from 0.000127645 ++++++++++++++++++++++++++++to 0.000127646
Heightened Def Con from 0.000127647 +++++++++++++++++++++++++++to 0.000127647
Heightened Def Con from 0.000127647 ++++++++++++++++++++++++++++to 0.000127648
Heightened Def Con from 0.000127648 +++++++++++++++++++++++++++to 0.000127648
Heightened Def Con from 0.000127648 ++++++++++++++++++++++++++++to 0.000127649
Heightened Def Con from 0.000127649 ++++++++++++++++++++++++++++to 0.00012765
Heightened Def Con from 0.00012765 +++++++++++++++++++++++++++to 0.00012765
Heightened Def Con from 0.00012765 ++++++++++++++++++++++++++++to 0.000127651
Heightened Def Con from 0.000127652 +++++++++++++++++++++++++++to 0.000127652
Heightened Def Con from 0.000127652 ++++++++++++++++++++++++++++to 0.000127653
Heightened Def Con from 0.000127653 +++++++++++++++++++++++++++to 0.000127653
Heightened Def Con from 0.000127653 ++++++++++++++++++++++++++++to 0.000127654
Heightened Def Con from 0.000127654 ++++++++++++++++++++++++++to 0.000127654
Heightened Def Con from 0.000127654 ++++++++++++++++++++++++++++to 0.000127655
Heightened Def Con from 0.000127655 +++++++++++++++++++++++++++to 0.000127655
Heightened Def Con from 0.000127655 ++++++++++++++++++++++++++++to 0.000127656
Heightened Def Con from 0.000127657 ++++++++++++++++++++++++++++to 0.000127658
Heightened Def Con from 0.000127658 +++++++++++++++++++++++++to 0.000127658
Heightened Def Con from 0.000127658 ++++++++++++++++++++++++++++to 0.000127659
Heightened Def Con from 0.000127659 +++++++++++++++++++++++++++to 0.000127659
Heightened Def Con from 0.000127659 ++++++++++++++++++++++++++++to 0.00012766
Heightened Def Con from 0.00012766 +++++++++++++++++++++++++++to 0.00012766
Heightened Def Con from 0.00012766 ++++++++++++++++++++++++++++to 0.000127661
Heightened Def Con from 0.000127662 ++++++++++++++++++++++++++++to 0.000127663
Heightened Def Con from 0.000127663 +++++++++++++++++++++++++to 0.000127663
Heightened Def Con from 0.000127663 ++++++++++++++++++++++++++++to 0.000127664
Heightened Def Con from 0.000127664 ++++++++++++++++++++++++++++to 0.000127665
Heightened Def Con from 0.000127665 ++++++++++++++++++++++++++to 0.000127665
Heightened Def Con from 0.000127665 ++++++++++++++++++++++++++++to 0.000127666
Heightened Def Con from 0.000127667 +++++++++++++++++++++++++++to 0.000127667
Heightened Def Con from 0.000127667 ++++++++++++++++++++++++++++to 0.000127668
Heightened Def Con from 0.000127668 ++++++++++++++++++++++++++++to 0.000127669
Heightened Def Con from 0.000127669 ++++++++++++++++++++++++to 0.000127669
Heightened Def Con from 0.000127669 ++++++++++++++++++++++++++++to 0.00012767
Heightened Def Con from 0.00012767 ++++++++++++++++++++++++++++to 0.000127671
Heightened Def Con from 0.000127672 +++++++++++++++++++++++++++to 0.000127672
Heightened Def Con from 0.000127672 ++++++++++++++++++++++++++++to 0.000127673
Heightened Def Con from 0.000127673 +++++++++++++++++++++++++++to 0.000127673
Heightened Def Con from 0.000127673 ++++++++++++++++++++++++++++to 0.000127674
Heightened Def Con from 0.000127674 ++++++++++++++++++++++++++++to 0.000127675
Heightened Def Con from 0.000127675 ++++++++++++++++++++++++++++to 0.000127676
Heightened Def Con from 0.000127677 ++++++++++++++++++++++++++++to 0.000127678
Heightened Def Con from 0.000127678 ++++++++++++++++++++++++++++to 0.000127679
Heightened Def Con from 0.000127679 ++++++++++++++++++++++++++++to 0.00012768
Heightened Def Con from 0.00012768 +++++++++++++++++++++++++++to 0.00012768
Heightened Def Con from 0.00012768 ++++++++++++++++++++++++++++to 0.000127681
Heightened Def Con from 0.000127682 +++++++++++++++++++++++++++to 0.000127682
Heightened Def Con from 0.000127682 ++++++++++++++++++++++++++++to 0.000127683
Heightened Def Con from 0.000127683 ++++++++++++++++++++++++++++to 0.000127684
Heightened Def Con from 0.000127684 +++++++++++++++++++++++++++to 0.000127684
Heightened Def Con from 0.000127684 ++++++++++++++++++++++++++++to 0.000127685
Heightened Def Con from 0.000127685 ++++++++++++++++++++++++++to 0.000127685
Heightened Def Con from 0.000127685 ++++++++++++++++++++++++++++to 0.000127686
Heightened Def Con from 0.000127687 ++++++++++++++++++++++++++++to 0.000127688
Heightened Def Con from 0.000127688 ++++++++++++++++++++++++++++to 0.000127689
Heightened Def Con from 0.000127689 +++++++++++++++++++to 0.000127689
Heightened Def Con from 0.000127689 ++++++++++++++++++++++++++++to 0.00012769
Heightened Def Con from 0.00012769 ++++++++++++++++++++++++++++to 0.000127691
Heightened Def Con from 0.000127692 ++++++++++++++++++++++++++to 0.000127692
Heightened Def Con from 0.000127692 ++++++++++++++++++++++++++++to 0.000127693
Heightened Def Con from 0.000127693 ++++++++++++++++++++++++++to 0.000127693
Heightened Def Con from 0.000127693 ++++++++++++++++++++++++++++to 0.000127694
Heightened Def Con from 0.000127694 ++++++++++++++++++++++++++to 0.000127694
Heightened Def Con from 0.000127694 ++++++++++++++++++++++++++++to 0.000127695
Heightened Def Con from 0.000127695 ++++++++++++++++++++++++to 0.000127695
Heightened Def Con from 0.000127695 ++++++++++++++++++++++++++++to 0.000127696
Heightened Def Con from 0.000127697 ++++++++++++++++++++++++++to 0.000127697
Heightened Def Con from 0.000127697 ++++++++++++++++++++++++++++to 0.000127698
Heightened Def Con from 0.000127698 ++++++++++++++++++++++++++++to 0.000127699
Heightened Def Con from 0.000127699 +++++++++++++++++++++++++++to 0.000127699
Heightened Def Con from 0.000127699 ++++++++++++++++++++++++++++to 0.0001277
Heightened Def Con from 0.0001277 +++++++++++++++++++++++to 0.0001277
Heightened Def Con from 0.0001277 ++++++++++++++++++++++++++++to 0.000127701
Heightened Def Con from 0.000127702 ++++++++++++++++++++++++++++to 0.000127703
Heightened Def Con from 0.000127703 +++++++++++++++++++++++++++to 0.000127703
Heightened Def Con from 0.000127703 ++++++++++++++++++++++++++++to 0.000127704
Heightened Def Con from 0.000127704 +++++++++++++++++++++++++++to 0.000127704
Heightened Def Con from 0.000127704 ++++++++++++++++++++++++++++to 0.000127705
Heightened Def Con from 0.000127705 ++++++++++++++++++++++++++++to 0.000127706
Heightened Def Con from 0.000127707 +++++++++++++++++++++++++++to 0.000127707
Heightened Def Con from 0.000127707 ++++++++++++++++++++++++++++to 0.000127708
Heightened Def Con from 0.000127708 +++++++++++++++++++++++++++to 0.000127708
Heightened Def Con from 0.000127708 ++++++++++++++++++++++++++++to 0.000127709
Heightened Def Con from 0.000127709 +++++++++++++++++++++++++++to 0.000127709
Heightened Def Con from 0.000127709 ++++++++++++++++++++++++++++to 0.00012771
Heightened Def Con from 0.00012771 +++++++++++++++++++++++++++to 0.00012771
Heightened Def Con from 0.00012771 ++++++++++++++++++++++++++++to 0.000127711
Heightened Def Con from 0.000127711 +++++++++++++++++++++++++++to 0.000127711
Heightened Def Con from 0.000127711 ++++++++++++++++++++++++++++to 0.000127712
Heightened Def Con from 0.000127713 +++++++++++++++++++++++++++to 0.000127713
Heightened Def Con from 0.000127713 ++++++++++++++++++++++++++++to 0.000127714
Heightened Def Con from 0.000127714 +++++++++++++++++++++++++++to 0.000127714
Heightened Def Con from 0.000127714 ++++++++++++++++++++++++++++to 0.000127715
Heightened Def Con from 0.000127715 ++++++++++++++++++++++++++++to 0.000127716
Heightened Def Con from 0.000127716 ++++++++++++++++++++++++++++to 0.000127717
Heightened Def Con from 0.000127718 +++++++++++++++++++to 0.000127718
Heightened Def Con from 0.000127718 ++++++++++++++++++++++++++++to 0.000127719
Heightened Def Con from 0.000127719 ++++++++++++++++++++++++++to 0.000127719
Heightened Def Con from 0.000127719 ++++++++++++++++++++++++++++to 0.00012772
Heightened Def Con from 0.00012772 ++++++++++++++++++++++++to 0.00012772
Heightened Def Con from 0.00012772 ++++++++++++++++++++++++++++to 0.000127721
Heightened Def Con from 0.000127721 ++++++++++++++++++++++++++to 0.000127721
Heightened Def Con from 0.000127721 ++++++++++++++++++++++++++++to 0.000127722
Heightened Def Con from 0.000127723 +++++++++++++++++++++++++++to 0.000127723
Heightened Def Con from 0.000127723 ++++++++++++++++++++++++++++to 0.000127724
Heightened Def Con from 0.000127724 ++++++++++++++++++++++++++++to 0.000127725
Heightened Def Con from 0.000127725 ++++++++++++++++++++++++++to 0.000127725
Heightened Def Con from 0.000127725 ++++++++++++++++++++++++++++to 0.000127726
Heightened Def Con from 0.000127726 ++++++++++++++++++++++++to 0.000127726
Heightened Def Con from 0.000127726 ++++++++++++++++++++++++++++to 0.000127727
Heightened Def Con from 0.000127728 +++++++++++++++++to 0.000127728
Heightened Def Con from 0.000127728 ++++++++++++++++++++++++++++to 0.000127729
Heightened Def Con from 0.000127729 +++++++++++++++++++++++++++to 0.000127729
Heightened Def Con from 0.000127729 ++++++++++++++++++++++++++++to 0.00012773
Heightened Def Con from 0.00012773 +++++++++++++++++++++++++++to 0.00012773
Heightened Def Con from 0.00012773 ++++++++++++++++++++++++++++to 0.000127731
Heightened Def Con from 0.000127731 +++++++++++++++++++++++++to 0.000127731
Heightened Def Con from 0.000127731 ++++++++++++++++++++++++++++to 0.000127732
Heightened Def Con from 0.000127733 +++++++++++++++++++++++++++to 0.000127733
Heightened Def Con from 0.000127733 ++++++++++++++++++++++++++++to 0.000127734
Heightened Def Con from 0.000127734 ++++++++++++++++++++++++to 0.000127734
Heightened Def Con from 0.000127734 ++++++++++++++++++++++++++++to 0.000127735
Heightened Def Con from 0.000127735 +++++++++++++++++++++++++to 0.000127735
Heightened Def Con from 0.000127735 ++++++++++++++++++++++++++++to 0.000127736
Heightened Def Con from 0.000127736 +++++++++++++++++++++++++++to 0.000127736
Heightened Def Con from 0.000127736 ++++++++++++++++++++++++++++to 0.000127737
Heightened Def Con from 0.000127738 ++++++++++++++++++++++++++to 0.000127738
Heightened Def Con from 0.000127738 ++++++++++++++++++++++++++++to 0.000127739
Heightened Def Con from 0.000127739 ++++++++++++++++++++++++++++to 0.00012774
Heightened Def Con from 0.00012774 +++++++++++++++++++++++++++to 0.00012774
Heightened Def Con from 0.00012774 ++++++++++++++++++++++++++++to 0.000127741
Heightened Def Con from 0.000127741 ++++++++++++++++++++++++++to 0.000127741
Heightened Def Con from 0.000127741 ++++++++++++++++++++++++++++to 0.000127742
Heightened Def Con from 0.000127743 ++++++++++++++++++++++++++++to 0.000127744
Heightened Def Con from 0.000127744 +++++++++++++++++++++++++++to 0.000127744
Heightened Def Con from 0.000127744 ++++++++++++++++++++++++++++to 0.000127745
Heightened Def Con from 0.000127745 ++++++++++++++++++++++++++++to 0.000127746
Heightened Def Con from 0.000127746 +++++++++++++++++++++++++++to 0.000127746
Heightened Def Con from 0.000127746 ++++++++++++++++++++++++++++to 0.000127747
Heightened Def Con from 0.000127748 ++++++++++++++++++++++++++to 0.000127748
Heightened Def Con from 0.000127748 ++++++++++++++++++++++++++++to 0.000127749
Heightened Def Con from 0.000127749 +++++++++++++++++++++++++++to 0.000127749
Heightened Def Con from 0.000127749 ++++++++++++++++++++++++++++to 0.00012775
Heightened Def Con from 0.00012775 ++++++++++++++++++++++++to 0.00012775
Heightened Def Con from 0.00012775 ++++++++++++++++++++++++++++to 0.000127751
Heightened Def Con from 0.000127751 ++++++++++++++++++++++++++to 0.000127751
Heightened Def Con from 0.000127751 ++++++++++++++++++++++++++++to 0.000127752
Heightened Def Con from 0.000127753 +++++++++++++++++++++++++++to 0.000127753
Heightened Def Con from 0.000127753 ++++++++++++++++++++++++++++to 0.000127754
Heightened Def Con from 0.000127754 ++++++++++++++++++++++++++to 0.000127754
Heightened Def Con from 0.000127754 ++++++++++++++++++++++++++++to 0.000127755
Heightened Def Con from 0.000127755 ++++++++++++++++++++++++to 0.000127755
Heightened Def Con from 0.000127755 ++++++++++++++++++++++++++++to 0.000127756
Heightened Def Con from 0.000127756 ++++++++++++++++++++++++++++to 0.000127757
Heightened Def Con from 0.000127758 +++++++++++++++++++++++++to 0.000127758
Heightened Def Con from 0.000127758 ++++++++++++++++++++++++++++to 0.000127759
Heightened Def Con from 0.000127759 +++++++++++++++++++++++++++to 0.000127759
Heightened Def Con from 0.000127759 ++++++++++++++++++++++++++++to 0.00012776
Heightened Def Con from 0.00012776 +++++++++++++++++++++++++++to 0.00012776
Heightened Def Con from 0.00012776 ++++++++++++++++++++++++++++to 0.000127761
Heightened Def Con from 0.000127761 +++++++++++++++++++++++++++to 0.000127761
Heightened Def Con from 0.000127761 ++++++++++++++++++++++++++++to 0.000127762
Heightened Def Con from 0.000127763 ++++++++++++++++++++++++++++to 0.000127764
Heightened Def Con from 0.000127764 +++++++++++++++++++++++++++to 0.000127764
Heightened Def Con from 0.000127764 ++++++++++++++++++++++++++++to 0.000127765
Heightened Def Con from 0.000127765 +++++++++++++++++++++++++++to 0.000127765
Heightened Def Con from 0.000127765 ++++++++++++++++++++++++++++to 0.000127766
Heightened Def Con from 0.000127766 +++++++++++++++++++++++++++to 0.000127766
Heightened Def Con from 0.000127766 ++++++++++++++++++++++++++++to 0.000127767
Heightened Def Con from 0.000127768 ++++++++++++++++++++++++++to 0.000127768
Heightened Def Con from 0.000127768 ++++++++++++++++++++++++++++to 0.000127769
Heightened Def Con from 0.000127769 ++++++++++++++++++++++++++to 0.000127769
Heightened Def Con from 0.000127769 ++++++++++++++++++++++++++++to 0.00012777
Heightened Def Con from 0.00012777 ++++++++++++++++++++++++++++to 0.000127771
Heightened Def Con from 0.000127771 ++++++++++++++++++++++++++to 0.000127771
Heightened Def Con from 0.000127771 ++++++++++++++++++++++++++++to 0.000127772
Heightened Def Con from 0.000127773 ++++++++++++++++++++++++++to 0.000127773
Heightened Def Con from 0.000127773 ++++++++++++++++++++++++++++to 0.000127774
Heightened Def Con from 0.000127774 ++++++++++++++++++++++++++++to 0.000127775
Heightened Def Con from 0.000127775 ++++++++++++++++++++++++++to 0.000127775
Heightened Def Con from 0.000127775 ++++++++++++++++++++++++++++to 0.000127776
Heightened Def Con from 0.000127776 +++++++++++++++++++++++++++to 0.000127776
Heightened Def Con from 0.000127776 ++++++++++++++++++++++++++++to 0.000127777
Heightened Def Con from 0.000127778 +++++++++++++++++++++++++++to 0.000127778
Heightened Def Con from 0.000127778 ++++++++++++++++++++++++++++to 0.000127779
Heightened Def Con from 0.000127779 ++++++++++++++++++++++++++to 0.000127779
Heightened Def Con from 0.000127779 ++++++++++++++++++++++++++++to 0.00012778
Heightened Def Con from 0.00012778 +++++++++++++++++++++++++to 0.00012778
Heightened Def Con from 0.00012778 ++++++++++++++++++++++++++++to 0.000127781
Heightened Def Con from 0.000127781 +++++++++++++++++++++++++++to 0.000127781
Heightened Def Con from 0.000127781 ++++++++++++++++++++++++++++to 0.000127782
Heightened Def Con from 0.000127783 +++++++++++++++++++++++++++to 0.000127783
Heightened Def Con from 0.000127783 +++++++++++++++++++++++++++to 0.000127783
Heightened Def Con from 0.000127783 ++++++++++++++++++++++++++++to 0.000127784
Heightened Def Con from 0.000127784 ++++++++++++++++++++++++to 0.000127784
Heightened Def Con from 0.000127784 ++++++++++++++++++++++++++++to 0.000127785
Heightened Def Con from 0.000127785 +++++++++++++++++++++++++to 0.000127785
Heightened Def Con from 0.000127785 ++++++++++++++++++++++++++++to 0.000127786
Heightened Def Con from 0.000127786 +++++++++++++++++++++++++++to 0.000127786
Heightened Def Con from 0.000127786 ++++++++++++++++++++++++++++to 0.000127787
Heightened Def Con from 0.000127788 +++++++++++++++++++++++++++to 0.000127788
Heightened Def Con from 0.000127788 ++++++++++++++++++++++++++++to 0.000127789
Heightened Def Con from 0.000127789 ++++++++++++++++++++++++++to 0.000127789
Heightened Def Con from 0.000127789 ++++++++++++++++++++++++++++to 0.00012779
Heightened Def Con from 0.00012779 +++++++++++++++++++++++++++to 0.00012779
Heightened Def Con from 0.00012779 ++++++++++++++++++++++++++++to 0.000127791
Heightened Def Con from 0.000127791 +++++++++++++++++++++++++++to 0.000127791
Heightened Def Con from 0.000127791 ++++++++++++++++++++++++++++to 0.000127792
Heightened Def Con from 0.000127793 +++++++++++++++++++++++++++to 0.000127793
Heightened Def Con from 0.000127793 ++++++++++++++++++++++++++++to 0.000127794
Heightened Def Con from 0.000127794 ++++++++++++++++++++++++++++to 0.000127795
Heightened Def Con from 0.000127795 ++++++++++++++++++++++++++++to 0.000127796
Heightened Def Con from 0.000127796 +++++++++++++++++++++++++++to 0.000127796
Heightened Def Con from 0.000127796 ++++++++++++++++++++++++++++to 0.000127797
Heightened Def Con from 0.000127798 ++++++++++++++++++++++++++++to 0.000127799
Heightened Def Con from 0.000127799 +++++++++++++++++++++++++++to 0.000127799
Heightened Def Con from 0.000127799 ++++++++++++++++++++++++++++to 0.0001278
Heightened Def Con from 0.0001278 +++++++++++++++++++++++++to 0.0001278
Heightened Def Con from 0.0001278 ++++++++++++++++++++++++++++to 0.000127801
Heightened Def Con from 0.000127801 ++++++++++++++++++++++++++++to 0.000127802
Heightened Def Con from 0.000127803 ++++++++++++++++++++++++++++to 0.000127804
Heightened Def Con from 0.000127804 +++++++++++++++++++++++++++to 0.000127804
Heightened Def Con from 0.000127804 +++++++++++++++++++++++++++to 0.000127804
Heightened Def Con from 0.000127804 ++++++++++++++++++++++++++++to 0.000127805
Heightened Def Con from 0.000127805 +++++++++++++++++++++++++++to 0.000127805
Heightened Def Con from 0.000127805 ++++++++++++++++++++++++++++to 0.000127806
Heightened Def Con from 0.000127806 ++++++++++++++++++++++++++to 0.000127806
Heightened Def Con from 0.000127806 ++++++++++++++++++++++++++++to 0.000127807
Heightened Def Con from 0.000127808 +++++++++++++++++++++++++++to 0.000127808
Heightened Def Con from 0.000127808 ++++++++++++++++++++++++++++to 0.000127809
Heightened Def Con from 0.000127809 ++++++++++++++++++++++++++to 0.000127809
Heightened Def Con from 0.000127809 ++++++++++++++++++++++++++++to 0.00012781
Heightened Def Con from 0.00012781 +++++++++++++++++++++++++++to 0.00012781
Heightened Def Con from 0.00012781 ++++++++++++++++++++++++++++to 0.000127811
Heightened Def Con from 0.000127811 ++++++++++++++++++++++++++++to 0.000127812
Heightened Def Con from 0.000127813 ++++++++++++++++++++++++++to 0.000127813
Heightened Def Con from 0.000127813 ++++++++++++++++++++++++++++to 0.000127814
Heightened Def Con from 0.000127814 ++++++++++++++++++++++++++to 0.000127814
Heightened Def Con from 0.000127814 ++++++++++++++++++++++++++++to 0.000127815
Heightened Def Con from 0.000127815 +++++++++++++++++++++++++to 0.000127815
Heightened Def Con from 0.000127815 ++++++++++++++++++++++++++++to 0.000127816
Heightened Def Con from 0.000127816 ++++++++++++++++++++++++++to 0.000127816
Heightened Def Con from 0.000127816 ++++++++++++++++++++++++++++to 0.000127817
Heightened Def Con from 0.000127818 ++++++++++++++++++++++++++++to 0.000127819
Heightened Def Con from 0.000127819 +++++++++++++++++++++++++++to 0.000127819
Heightened Def Con from 0.000127819 ++++++++++++++++++++++++++++to 0.00012782
Heightened Def Con from 0.00012782 +++++++++++++++++++++++++++to 0.00012782
Heightened Def Con from 0.00012782 ++++++++++++++++++++++++++++to 0.000127821
Heightened Def Con from 0.000127821 +++++++++++++++++++++++++to 0.000127821
Heightened Def Con from 0.000127821 ++++++++++++++++++++++++++++to 0.000127822
Heightened Def Con from 0.000127823 ++++++++++++++++++++++++++++to 0.000127824
Heightened Def Con from 0.000127824 ++++++++++++++++++++++++++++to 0.000127825
Heightened Def Con from 0.000127825 ++++++++++++++++++++++++++to 0.000127825
Heightened Def Con from 0.000127825 ++++++++++++++++++++++++++++to 0.000127826
Heightened Def Con from 0.000127826 +++++++++++++++++++++++++++to 0.000127826
Heightened Def Con from 0.000127826 ++++++++++++++++++++++++++++to 0.000127827
Heightened Def Con from 0.000127828 ++++++++++++++++++++++++++to 0.000127828
Heightened Def Con from 0.000127828 ++++++++++++++++++++++++++++to 0.000127829
Heightened Def Con from 0.000127829 +++++++++++++++++++++++++++to 0.000127829
Heightened Def Con from 0.000127829 ++++++++++++++++++++++++++++to 0.00012783
Heightened Def Con from 0.00012783 ++++++++++++++++++++++++++++to 0.000127831
Heightened Def Con from 0.000127831 ++++++++++++++++++++++++++++to 0.000127832
Heightened Def Con from 0.000127832 ++++++++++++++++++++++++++++to 0.000127833
Heightened Def Con from 0.000127834 ++++++++++++++++++++++++to 0.000127834
Heightened Def Con from 0.000127834 ++++++++++++++++++++++++++++to 0.000127835
Heightened Def Con from 0.000127835 +++++++++++++++++++++++++++to 0.000127835
Heightened Def Con from 0.000127835 ++++++++++++++++++++++++++++to 0.000127836
Heightened Def Con from 0.000127836 +++++++++++++++++++++++++to 0.000127836
Heightened Def Con from 0.000127836 ++++++++++++++++++++++++++++to 0.000127837
Heightened Def Con from 0.000127837 +++++++++++++++++++++++++++to 0.000127837
Heightened Def Con from 0.000127837 ++++++++++++++++++++++++++++to 0.000127838
Heightened Def Con from 0.000127839 ++++++++++++++++++++++++++++to 0.00012784
Heightened Def Con from 0.00012784 ++++++++++++++++++++++++++++to 0.000127841
Heightened Def Con from 0.000127841 ++++++++++++++++++++++++++to 0.000127841
Heightened Def Con from 0.000127841 ++++++++++++++++++++++++++++to 0.000127842
Heightened Def Con from 0.000127842 ++++++++++++++++++++++++++++to 0.000127843
Heightened Def Con from 0.000127844 +++++++++++++++++++++++++++to 0.000127844
Heightened Def Con from 0.000127844 ++++++++++++++++++++++++++++to 0.000127845
Heightened Def Con from 0.000127845 +++++++++++++++++++++++++to 0.000127845
Heightened Def Con from 0.000127845 ++++++++++++++++++++++++++++to 0.000127846
Heightened Def Con from 0.000127846 +++++++++++++++++++++++++++to 0.000127846
Heightened Def Con from 0.000127846 ++++++++++++++++++++++++++++to 0.000127847
Heightened Def Con from 0.000127847 ++++++++++++++++++++++++++to 0.000127847
Heightened Def Con from 0.000127847 ++++++++++++++++++++++++++++to 0.000127848
Heightened Def Con from 0.000127849 +++++++++++++++++++++++++++to 0.000127849
Heightened Def Con from 0.000127849 ++++++++++++++++++++++++++++to 0.00012785
Heightened Def Con from 0.00012785 ++++++++++++++++++++++++++to 0.00012785
Heightened Def Con from 0.00012785 ++++++++++++++++++++++++++++to 0.000127851
Heightened Def Con from 0.000127851 ++++++++++++++++++++++++++++to 0.000127852
Heightened Def Con from 0.000127852 +++++++++++++++++++++++++++to 0.000127852
Heightened Def Con from 0.000127852 ++++++++++++++++++++++++++++to 0.000127853
Heightened Def Con from 0.000127854 ++++++++++++++++++++++++++++to 0.000127855
Heightened Def Con from 0.000127855 +++++++++++++++++++++++++++to 0.000127855
Heightened Def Con from 0.000127855 ++++++++++++++++++++++++++++to 0.000127856
Heightened Def Con from 0.000127856 ++++++++++++++++++++++++++++to 0.000127857
Heightened Def Con from 0.000127857 +++++++++++++++++++++++++++to 0.000127857
Heightened Def Con from 0.000127857 ++++++++++++++++++++++++++++to 0.000127858
Heightened Def Con from 0.000127859 ++++++++++++++++++++++++++++to 0.00012786
Heightened Def Con from 0.00012786 ++++++++++++++++++++++++++to 0.00012786
Heightened Def Con from 0.00012786 ++++++++++++++++++++++++++++to 0.000127861
Heightened Def Con from 0.000127861 +++++++++++++++++++++++++++to 0.000127861
Heightened Def Con from 0.000127861 ++++++++++++++++++++++++++++to 0.000127862
Heightened Def Con from 0.000127862 ++++++++++++++++++++++++++++to 0.000127863
Heightened Def Con from 0.000127864 +++++++++++++++++++++++++++to 0.000127864
Heightened Def Con from 0.000127864 ++++++++++++++++++++++++++++to 0.000127865
Heightened Def Con from 0.000127865 +++++++++++++++++++++++++to 0.000127865
Heightened Def Con from 0.000127865 ++++++++++++++++++++++++++++to 0.000127866
Heightened Def Con from 0.000127866 +++++++++++++++++++++++++++to 0.000127866
Heightened Def Con from 0.000127866 ++++++++++++++++++++++++++++to 0.000127867
Heightened Def Con from 0.000127867 ++++++++++++++++++++++++++++to 0.000127868
Heightened Def Con from 0.000127869 +++++++++++++++++++++to 0.000127869
Heightened Def Con from 0.000127869 ++++++++++++++++++++++++++++to 0.00012787
Heightened Def Con from 0.00012787 ++++++++++++++++++++++++++to 0.00012787
Heightened Def Con from 0.00012787 ++++++++++++++++++++++++++++to 0.000127871
Heightened Def Con from 0.000127871 +++++++++++++++++++++++++++to 0.000127871
Heightened Def Con from 0.000127871 ++++++++++++++++++++++++++++to 0.000127872
Heightened Def Con from 0.000127872 +++++++++++++++++++++++++++to 0.000127872
Heightened Def Con from 0.000127872 ++++++++++++++++++++++++++++to 0.000127873
Heightened Def Con from 0.000127874 ++++++++++++++++++++++++++to 0.000127874
Heightened Def Con from 0.000127874 ++++++++++++++++++++++++++++to 0.000127875
Heightened Def Con from 0.000127875 ++++++++++++++++++++++++++to 0.000127875
Heightened Def Con from 0.000127875 ++++++++++++++++++++++++++++to 0.000127876
Heightened Def Con from 0.000127876 ++++++++++++++++++++++++to 0.000127876
Heightened Def Con from 0.000127876 ++++++++++++++++++++++++++++to 0.000127877
Heightened Def Con from 0.000127877 +++++++++++++++++++++++++to 0.000127877
Heightened Def Con from 0.000127877 ++++++++++++++++++++++++++++to 0.000127878
Heightened Def Con from 0.000127879 +++++++++++++++++++++++++to 0.000127879
Heightened Def Con from 0.000127879 ++++++++++++++++++++++++++++to 0.00012788
Heightened Def Con from 0.00012788 ++++++++++++++++++++++++++++to 0.000127881
Heightened Def Con from 0.000127881 ++++++++++++++++++++++++++to 0.000127881
Heightened Def Con from 0.000127881 ++++++++++++++++++++++++++++to 0.000127882
Heightened Def Con from 0.000127882 ++++++++++++++++++++++++++to 0.000127882
Heightened Def Con from 0.000127882 ++++++++++++++++++++++++++++to 0.000127883
Heightened Def Con from 0.000127884 +++++++++++++++++++++++++++to 0.000127884
Heightened Def Con from 0.000127884 ++++++++++++++++++++++++++++to 0.000127885
Heightened Def Con from 0.000127885 ++++++++++++++++++++++++++++to 0.000127886
Heightened Def Con from 0.000127886 +++++++++++++++++++++++++++to 0.000127886
Heightened Def Con from 0.000127886 ++++++++++++++++++++++++++++to 0.000127887
Heightened Def Con from 0.000127887 +++++++++++++++++++++++++++to 0.000127887
Heightened Def Con from 0.000127887 ++++++++++++++++++++++++++++to 0.000127888
Heightened Def Con from 0.000127889 ++++++++++++++++++++++++++++to 0.00012789
Heightened Def Con from 0.00012789 ++++++++++++++++++++++++++to 0.00012789
Heightened Def Con from 0.00012789 ++++++++++++++++++++++++++++to 0.000127891
Heightened Def Con from 0.000127891 ++++++++++++++++++++++++to 0.000127891
Heightened Def Con from 0.000127891 ++++++++++++++++++++++++++++to 0.000127892
Heightened Def Con from 0.000127892 ++++++++++++++++++++++++++++to 0.000127893
Heightened Def Con from 0.000127894 ++++++++++++++++++++++++++++to 0.000127895
Heightened Def Con from 0.000127895 ++++++++++++++++++++++++++to 0.000127895
Heightened Def Con from 0.000127895 ++++++++++++++++++++++++++++to 0.000127896
Heightened Def Con from 0.000127896 +++++++++++++++++++++++++++to 0.000127896
Heightened Def Con from 0.000127896 ++++++++++++++++++++++++++++to 0.000127897
Heightened Def Con from 0.000127897 +++++++++++++++++++++++++++to 0.000127897
Heightened Def Con from 0.000127897 ++++++++++++++++++++++++++++to 0.000127898
Heightened Def Con from 0.000127899 ++++++++++++++++++++++++++to 0.000127899
Heightened Def Con from 0.000127899 ++++++++++++++++++++++++++++to 0.0001279
Heightened Def Con from 0.0001279 +++++++++++++++++++++++++++to 0.0001279
Heightened Def Con from 0.0001279 ++++++++++++++++++++++++++++to 0.000127901
Heightened Def Con from 0.000127901 +++++++++++++++++++++++++++to 0.000127901
Heightened Def Con from 0.000127901 ++++++++++++++++++++++++++++to 0.000127902
Heightened Def Con from 0.000127902 +++++++++++++++++++++++++++to 0.000127902
Heightened Def Con from 0.000127902 ++++++++++++++++++++++++++++to 0.000127903
Heightened Def Con from 0.000127904 +++++++++++++++++++++++++++to 0.000127904
Heightened Def Con from 0.000127904 ++++++++++++++++++++++++++++to 0.000127905
Heightened Def Con from 0.000127905 ++++++++++++++++++++++++++to 0.000127905
Heightened Def Con from 0.000127905 ++++++++++++++++++++++++++++to 0.000127906
Heightened Def Con from 0.000127906 +++++++++++++++++++++++++++to 0.000127906
Heightened Def Con from 0.000127906 ++++++++++++++++++++++++++++to 0.000127907
Heightened Def Con from 0.000127907 ++++++++++++++++++++++++++to 0.000127907
Heightened Def Con from 0.000127907 ++++++++++++++++++++++++++++to 0.000127908
Heightened Def Con from 0.000127909 +++++++++++++++++++++++++++to 0.000127909
Heightened Def Con from 0.000127909 ++++++++++++++++++++++++++++to 0.00012791
Heightened Def Con from 0.00012791 +++++++++++++++++++++++++to 0.00012791
Heightened Def Con from 0.00012791 ++++++++++++++++++++++++++++to 0.000127911
Heightened Def Con from 0.000127911 ++++++++++++++++++++++++to 0.000127911
Heightened Def Con from 0.000127911 ++++++++++++++++++++++++++++to 0.000127912
Heightened Def Con from 0.000127912 ++++++++++++++++++++++++++++to 0.000127913
Heightened Def Con from 0.000127914 +++++++++++++++++++++++++++to 0.000127914
Heightened Def Con from 0.000127914 ++++++++++++++++++++++++++++to 0.000127915
Heightened Def Con from 0.000127915 +++++++++++++++++++++++++++to 0.000127915
Heightened Def Con from 0.000127915 ++++++++++++++++++++++++++++to 0.000127916
Heightened Def Con from 0.000127916 ++++++++++++++++++++++++++++to 0.000127917
Heightened Def Con from 0.000127917 +++++++++++++++++++++++++++to 0.000127917
Heightened Def Con from 0.000127917 ++++++++++++++++++++++++++++to 0.000127918
Heightened Def Con from 0.000127919 ++++++++++++++++++++++++++to 0.000127919
Heightened Def Con from 0.000127919 ++++++++++++++++++++++++++++to 0.00012792
Heightened Def Con from 0.00012792 ++++++++++++++++++++++++++++to 0.000127921
Heightened Def Con from 0.000127921 +++++++++++++++++++++++++to 0.000127921
Heightened Def Con from 0.000127921 ++++++++++++++++++++++++++++to 0.000127922
Heightened Def Con from 0.000127922 +++++++++++++++++++++++++++to 0.000127922
Heightened Def Con from 0.000127922 ++++++++++++++++++++++++++++to 0.000127923
Heightened Def Con from 0.000127924 ++++++++++++++++++++++++++++to 0.000127925
Heightened Def Con from 0.000127925 ++++++++++++++++++++++++++to 0.000127925
Heightened Def Con from 0.000127925 ++++++++++++++++++++++++++++to 0.000127926
Heightened Def Con from 0.000127926 ++++++++++++++++++++++++to 0.000127926
Heightened Def Con from 0.000127926 ++++++++++++++++++++++++++++to 0.000127927
Heightened Def Con from 0.000127927 ++++++++++++++++++++++++++to 0.000127927
Heightened Def Con from 0.000127927 ++++++++++++++++++++++++++++to 0.000127928
Heightened Def Con from 0.000127929 +++++++++++++++++++++++++to 0.000127929
Heightened Def Con from 0.000127929 ++++++++++++++++++++++++++++to 0.00012793
Heightened Def Con from 0.00012793 ++++++++++++++++++++++++++++to 0.000127931
Heightened Def Con from 0.000127931 +++++++++++++++++++++++++++to 0.000127931
Heightened Def Con from 0.000127931 ++++++++++++++++++++++++++++to 0.000127932
Heightened Def Con from 0.000127932 ++++++++++++++++++++++++to 0.000127932
Heightened Def Con from 0.000127932 ++++++++++++++++++++++++++++to 0.000127933
Heightened Def Con from 0.000127934 +++++++++++++++++++++++++++to 0.000127934
Heightened Def Con from 0.000127934 ++++++++++++++++++++++++++++to 0.000127935
Heightened Def Con from 0.000127935 +++++++++++++++++++++++++++to 0.000127935
Heightened Def Con from 0.000127935 ++++++++++++++++++++++++++++to 0.000127936
Heightened Def Con from 0.000127936 ++++++++++++++++++++++++++++to 0.000127937
Heightened Def Con from 0.000127937 +++++++++++++++++++++++++++to 0.000127937
Heightened Def Con from 0.000127937 ++++++++++++++++++++++++++++to 0.000127938
Heightened Def Con from 0.000127939 +++++++++++++++++++++++++++to 0.000127939
Heightened Def Con from 0.000127939 ++++++++++++++++++++++++++++to 0.00012794
Heightened Def Con from 0.00012794 ++++++++++++++++++++++++++to 0.00012794
Heightened Def Con from 0.00012794 ++++++++++++++++++++++++++++to 0.000127941
Heightened Def Con from 0.000127941 +++++++++++++++++++++++++++to 0.000127941
Heightened Def Con from 0.000127941 ++++++++++++++++++++++++++++to 0.000127942
Heightened Def Con from 0.000127942 ++++++++++++++++++++++++++++to 0.000127943
Heightened Def Con from 0.000127944 ++++++++++++++++++++++++++++to 0.000127945
Heightened Def Con from 0.000127945 +++++++++++++++++++++++++++to 0.000127945
Heightened Def Con from 0.000127945 ++++++++++++++++++++++++++++to 0.000127946
Heightened Def Con from 0.000127946 ++++++++++++++++++++++++++++to 0.000127947
Heightened Def Con from 0.000127947 ++++++++++++++++++++++++++to 0.000127947
Heightened Def Con from 0.000127947 ++++++++++++++++++++++++++++to 0.000127948
Heightened Def Con from 0.000127949 ++++++++++++++++++++++++++to 0.000127949
Heightened Def Con from 0.000127949 ++++++++++++++++++++++++++++to 0.00012795
Heightened Def Con from 0.00012795 ++++++++++++++++++++++++++++to 0.000127951
Heightened Def Con from 0.000127951 +++++++++++++++++++++++++++to 0.000127951
Heightened Def Con from 0.000127951 ++++++++++++++++++++++++++++to 0.000127952
Heightened Def Con from 0.000127952 ++++++++++++++++++++++++++++to 0.000127953
Heightened Def Con from 0.000127953 +++++++++++++++++++++++++++to 0.000127953
Heightened Def Con from 0.000127953 ++++++++++++++++++++++++++++to 0.000127954
Heightened Def Con from 0.000127955 ++++++++++++++++++++++++++++to 0.000127956
Heightened Def Con from 0.000127956 ++++++++++++++++++++++++++to 0.000127956
Heightened Def Con from 0.000127956 ++++++++++++++++++++++++++++to 0.000127957
Heightened Def Con from 0.000127957 ++++++++++++++++++++++++++to 0.000127957
Heightened Def Con from 0.000127957 ++++++++++++++++++++++++++++to 0.000127958
Heightened Def Con from 0.000127958 +++++++++++++++++++++++++++to 0.000127958
Heightened Def Con from 0.000127958 ++++++++++++++++++++++++++++to 0.000127959
Heightened Def Con from 0.00012796 +++++++++++++++++++++++++to 0.00012796
Heightened Def Con from 0.00012796 ++++++++++++++++++++++++++++to 0.000127961
Heightened Def Con from 0.000127961 ++++++++++++++++++++++++++++to 0.000127962
Heightened Def Con from 0.000127962 ++++++++++++++++++++++++++++to 0.000127963
Heightened Def Con from 0.000127963 ++++++++++++++++++++++++++++to 0.000127964
Heightened Def Con from 0.000127965 ++++++++++++++++++++++++++to 0.000127965
Heightened Def Con from 0.000127965 ++++++++++++++++++++++++++++to 0.000127966
Heightened Def Con from 0.000127966 +++++++++++++++++++++++++++to 0.000127966
Heightened Def Con from 0.000127966 ++++++++++++++++++++++++++++to 0.000127967
Heightened Def Con from 0.000127967 +++++++++++++++++++++++++++to 0.000127967
Heightened Def Con from 0.000127967 ++++++++++++++++++++++++++++to 0.000127968
Heightened Def Con from 0.000127968 +++++++++++++++++++++++++++to 0.000127968
Heightened Def Con from 0.000127968 ++++++++++++++++++++++++++++to 0.000127969
Heightened Def Con from 0.00012797 +++++++++++++++++++++++++++to 0.00012797
Heightened Def Con from 0.00012797 ++++++++++++++++++++++++++++to 0.000127971
Heightened Def Con from 0.000127971 +++++++++++++++++++++++++++to 0.000127971
Heightened Def Con from 0.000127971 ++++++++++++++++++++++++++++to 0.000127972
Heightened Def Con from 0.000127972 +++++++++++++++++++++++++to 0.000127972
Heightened Def Con from 0.000127972 ++++++++++++++++++++++++++++to 0.000127973
Heightened Def Con from 0.000127973 +++++++++++++++++++++++++++to 0.000127973
Heightened Def Con from 0.000127973 ++++++++++++++++++++++++++++to 0.000127974
Heightened Def Con from 0.000127975 ++++++++++++++++++++++++to 0.000127975
Heightened Def Con from 0.000127975 ++++++++++++++++++++++++++++to 0.000127976
Heightened Def Con from 0.000127976 +++++++++++++++++++++++++++to 0.000127976
Heightened Def Con from 0.000127976 ++++++++++++++++++++++++++++to 0.000127977
Heightened Def Con from 0.000127977 ++++++++++++++++++++++++to 0.000127977
Heightened Def Con from 0.000127977 ++++++++++++++++++++++++++++to 0.000127978
Heightened Def Con from 0.000127978 ++++++++++++++++++++++++++to 0.000127978
Heightened Def Con from 0.000127978 ++++++++++++++++++++++++++++to 0.000127979
Heightened Def Con from 0.00012798 +++++++++++++++++++++++++++to 0.00012798
Heightened Def Con from 0.00012798 ++++++++++++++++++++++++++++to 0.000127981
Heightened Def Con from 0.000127981 ++++++++++++++++++++++++++++to 0.000127982
Heightened Def Con from 0.000127982 +++++++++++++++++++++++++to 0.000127982
Heightened Def Con from 0.000127982 ++++++++++++++++++++++++++++to 0.000127983
Heightened Def Con from 0.000127983 ++++++++++++++++++++++++++++to 0.000127984
Heightened Def Con from 0.000127985 +++++++++++++++++++++++++++to 0.000127985
Heightened Def Con from 0.000127985 ++++++++++++++++++++++++++++to 0.000127986
Heightened Def Con from 0.000127986 +++++++++++++++++++++++++++to 0.000127986
Heightened Def Con from 0.000127986 ++++++++++++++++++++++++++++to 0.000127987
Heightened Def Con from 0.000127987 +++++++++++++++++++++++++to 0.000127987
Heightened Def Con from 0.000127987 ++++++++++++++++++++++++++++to 0.000127988
Heightened Def Con from 0.000127988 +++++++++++++++++++++to 0.000127988
Heightened Def Con from 0.000127988 ++++++++++++++++++++++++++++to 0.000127989
Heightened Def Con from 0.00012799 ++++++++++++++++++++++++to 0.00012799
Heightened Def Con from 0.00012799 ++++++++++++++++++++++++++++to 0.000127991
Heightened Def Con from 0.000127991 +++++++++++++++++++++++++++to 0.000127991
Heightened Def Con from 0.000127991 ++++++++++++++++++++++++++++to 0.000127992
Heightened Def Con from 0.000127992 ++++++++++++++++++++++++++++to 0.000127993
Heightened Def Con from 0.000127993 +++++++++++++++++++++++++++to 0.000127993
Heightened Def Con from 0.000127993 ++++++++++++++++++++++++++++to 0.000127994
Heightened Def Con from 0.000127995 ++++++++++++++++++++++++++++to 0.000127996
Heightened Def Con from 0.000127996 ++++++++++++++++++++++++++to 0.000127996
Heightened Def Con from 0.000127996 ++++++++++++++++++++++++++++to 0.000127997
Heightened Def Con from 0.000127997 ++++++++++++++++++++++++to 0.000127997
Heightened Def Con from 0.000127997 ++++++++++++++++++++++++++++to 0.000127998
Heightened Def Con from 0.000127998 +++++++++++++++++++++++++++to 0.000127998
Heightened Def Con from 0.000127998 ++++++++++++++++++++++++++++to 0.000127999
Heightened Def Con from 0.000128 ++++++++++++++++++++++++to 0.000128
Heightened Def Con from 0.000128 ++++++++++++++++++++++++++++to 0.000128001
Heightened Def Con from 0.000128001 ++++++++++++++++++++++++++++to 0.000128002
Heightened Def Con from 0.000128002 ++++++++++++++++++++++++to 0.000128002
Heightened Def Con from 0.000128002 ++++++++++++++++++++++++++++to 0.000128003
Heightened Def Con from 0.000128003 ++++++++++++++++++++++++++++to 0.000128004
Heightened Def Con from 0.000128005 ++++++++++++++++++++++++++to 0.000128005
Heightened Def Con from 0.000128005 ++++++++++++++++++++++++++++to 0.000128006
Heightened Def Con from 0.000128006 +++++++++++++++++++++++++++to 0.000128006
Heightened Def Con from 0.000128006 ++++++++++++++++++++++++++++to 0.000128007
Heightened Def Con from 0.000128007 ++++++++++++++++++++++++++to 0.000128007
Heightened Def Con from 0.000128007 ++++++++++++++++++++++++++++to 0.000128008
Heightened Def Con from 0.000128008 ++++++++++++++++++++++++++++to 0.000128009
Heightened Def Con from 0.00012801 +++++++++++++++++++++++++++to 0.00012801
Heightened Def Con from 0.00012801 ++++++++++++++++++++++++++++to 0.000128011
Heightened Def Con from 0.000128011 +++++++++++++++++++++++++++to 0.000128011
Heightened Def Con from 0.000128011 ++++++++++++++++++++++++++++to 0.000128012
Heightened Def Con from 0.000128012 +++++++++++++++++++++++++++to 0.000128012
Heightened Def Con from 0.000128012 ++++++++++++++++++++++++++++to 0.000128013
Heightened Def Con from 0.000128013 +++++++++++++++++++++++++++to 0.000128013
Heightened Def Con from 0.000128013 ++++++++++++++++++++++++++++to 0.000128014
Heightened Def Con from 0.000128015 +++++++++++++++++++++++++++to 0.000128015
Heightened Def Con from 0.000128015 ++++++++++++++++++++++++++++to 0.000128016
Heightened Def Con from 0.000128016 +++++++++++++++++++++++++++to 0.000128016
Heightened Def Con from 0.000128016 ++++++++++++++++++++++++++++to 0.000128017
Heightened Def Con from 0.000128017 +++++++++++++++++++++++++++to 0.000128017
Heightened Def Con from 0.000128017 ++++++++++++++++++++++++++++to 0.000128018
Heightened Def Con from 0.000128018 +++++++++++++++++++++++++to 0.000128018
Heightened Def Con from 0.000128018 ++++++++++++++++++++++++++++to 0.000128019
Heightened Def Con from 0.00012802 ++++++++++++++++++++++++++++to 0.000128021
Heightened Def Con from 0.000128021 +++++++++++++++++++++++++++to 0.000128021
Heightened Def Con from 0.000128021 ++++++++++++++++++++++++++++to 0.000128022
Heightened Def Con from 0.000128022 ++++++++++++++++++++++++++to 0.000128022
Heightened Def Con from 0.000128022 ++++++++++++++++++++++++++++to 0.000128023
Heightened Def Con from 0.000128023 ++++++++++++++++++++++++++to 0.000128023
Heightened Def Con from 0.000128023 ++++++++++++++++++++++++++++to 0.000128024
Heightened Def Con from 0.000128025 +++++++++++++++++++++++++++to 0.000128025
Heightened Def Con from 0.000128025 ++++++++++++++++++++++++++++to 0.000128026
Heightened Def Con from 0.000128026 ++++++++++++++++++++++++++++to 0.000128027
Heightened Def Con from 0.000128027 +++++++++++++++++++++++++++to 0.000128027
Heightened Def Con from 0.000128027 ++++++++++++++++++++++++++++to 0.000128028
Heightened Def Con from 0.000128028 ++++++++++++++++++++++++++to 0.000128028
Heightened Def Con from 0.000128028 ++++++++++++++++++++++++++++to 0.000128029
Heightened Def Con from 0.00012803 +++++++++++++++++++++++++++to 0.00012803
Heightened Def Con from 0.00012803 ++++++++++++++++++++++++++++to 0.000128031
Heightened Def Con from 0.000128031 +++++++++++++++++++++++to 0.000128031
Heightened Def Con from 0.000128031 ++++++++++++++++++++++++++++to 0.000128032
Heightened Def Con from 0.000128032 +++++++++++++++++++++++++to 0.000128032
Heightened Def Con from 0.000128032 ++++++++++++++++++++++++++++to 0.000128033
Heightened Def Con from 0.000128033 +++++++++++++++++++++++++++to 0.000128033
Heightened Def Con from 0.000128033 ++++++++++++++++++++++++++++to 0.000128034
Heightened Def Con from 0.000128035 ++++++++++++++++++++++++++to 0.000128035
Heightened Def Con from 0.000128035 ++++++++++++++++++++++++++++to 0.000128036
Heightened Def Con from 0.000128036 +++++++++++++++++++++++++++to 0.000128036
Heightened Def Con from 0.000128036 ++++++++++++++++++++++++++++to 0.000128037
Heightened Def Con from 0.000128037 ++++++++++++++++++++++++++++to 0.000128038
Heightened Def Con from 0.000128038 ++++++++++++++++++++++++++++to 0.000128039
Heightened Def Con from 0.00012804 +++++++++++++++++++++++++++to 0.00012804
Heightened Def Con from 0.00012804 ++++++++++++++++++++++++++++to 0.000128041
Heightened Def Con from 0.000128041 ++++++++++++++++++++++++++++to 0.000128042
Heightened Def Con from 0.000128042 ++++++++++++++++++++++++++++to 0.000128043
Heightened Def Con from 0.000128043 +++++++++++++++++++++++++++to 0.000128043
Heightened Def Con from 0.000128043 ++++++++++++++++++++++++++++to 0.000128044
Heightened Def Con from 0.000128045 ++++++++++++++++++++++to 0.000128045
Heightened Def Con from 0.000128045 ++++++++++++++++++++++++++++to 0.000128046
Heightened Def Con from 0.000128046 ++++++++++++++++++++++++++to 0.000128046
Heightened Def Con from 0.000128046 ++++++++++++++++++++++++++++to 0.000128047
Heightened Def Con from 0.000128047 +++++++++++++++++++++++++++to 0.000128047
Heightened Def Con from 0.000128047 ++++++++++++++++++++++++++++to 0.000128048
Heightened Def Con from 0.000128048 ++++++++++++++++++++++++++++to 0.000128049
Heightened Def Con from 0.00012805 ++++++++++++++++++++++++++++to 0.000128051
Heightened Def Con from 0.000128051 +++++++++++++++++++++++++++to 0.000128051
Heightened Def Con from 0.000128051 ++++++++++++++++++++++++++++to 0.000128052
Heightened Def Con from 0.000128052 ++++++++++++++++++++++++++to 0.000128052
Heightened Def Con from 0.000128052 ++++++++++++++++++++++++++++to 0.000128053
Heightened Def Con from 0.000128053 +++++++++++++++++++++++++++to 0.000128053
Heightened Def Con from 0.000128053 ++++++++++++++++++++++++++++to 0.000128054
Heightened Def Con from 0.000128055 ++++++++++++++++++++++++++++to 0.000128056
Heightened Def Con from 0.000128056 +++++++++++++++++++++++++++to 0.000128056
Heightened Def Con from 0.000128056 ++++++++++++++++++++++++++++to 0.000128057
Heightened Def Con from 0.000128057 +++++++++++++++++++++++++++to 0.000128057
Heightened Def Con from 0.000128057 ++++++++++++++++++++++++++++to 0.000128058
Heightened Def Con from 0.000128058 ++++++++++++++++++++++++++++to 0.000128059
Heightened Def Con from 0.00012806 +++++++++++++++++++++++to 0.00012806
Heightened Def Con from 0.00012806 ++++++++++++++++++++++++++++to 0.000128061
Heightened Def Con from 0.000128061 +++++++++++++++++++++++++++to 0.000128061
Heightened Def Con from 0.000128061 ++++++++++++++++++++++++++++to 0.000128062
Heightened Def Con from 0.000128062 ++++++++++++++++++++++++++++to 0.000128063
Heightened Def Con from 0.000128063 +++++++++++++++++++++++++++to 0.000128063
Heightened Def Con from 0.000128063 ++++++++++++++++++++++++++++to 0.000128064
Heightened Def Con from 0.000128065 ++++++++++++++++++++++++++++to 0.000128066
Heightened Def Con from 0.000128066 +++++++++++++++++++++++++++to 0.000128066
Heightened Def Con from 0.000128066 ++++++++++++++++++++++++++++to 0.000128067
Heightened Def Con from 0.000128067 ++++++++++++++++++++++++++++to 0.000128068
Heightened Def Con from 0.000128068 ++++++++++++++++++++++++++++to 0.000128069
Heightened Def Con from 0.00012807 ++++++++++++++++++++++++++to 0.00012807
Heightened Def Con from 0.00012807 ++++++++++++++++++++++++++++to 0.000128071
Heightened Def Con from 0.000128071 +++++++++++++++++++++++++to 0.000128071
Heightened Def Con from 0.000128071 ++++++++++++++++++++++++++++to 0.000128072
Heightened Def Con from 0.000128072 ++++++++++++++++++++++++++++to 0.000128073
Heightened Def Con from 0.000128073 ++++++++++++++++++++++++++++to 0.000128074
Heightened Def Con from 0.000128075 ++++++++++++++++++++++++++to 0.000128075
Heightened Def Con from 0.000128075 ++++++++++++++++++++++++++++to 0.000128076
Heightened Def Con from 0.000128076 ++++++++++++++++++++++++++to 0.000128076
Heightened Def Con from 0.000128076 ++++++++++++++++++++++++++++to 0.000128077
Heightened Def Con from 0.000128077 ++++++++++++++++++++++++++to 0.000128077
Heightened Def Con from 0.000128077 ++++++++++++++++++++++++++++to 0.000128078
Heightened Def Con from 0.000128078 +++++++++++++++++++++++++++to 0.000128078
Heightened Def Con from 0.000128078 ++++++++++++++++++++++++++++to 0.000128079
Heightened Def Con from 0.00012808 ++++++++++++++++++++++++++++to 0.000128081
Heightened Def Con from 0.000128081 +++++++++++++++++++++++++++to 0.000128081
Heightened Def Con from 0.000128081 ++++++++++++++++++++++++++++to 0.000128082
Heightened Def Con from 0.000128082 +++++++++++++++++++++++++++to 0.000128082
Heightened Def Con from 0.000128082 ++++++++++++++++++++++++++++to 0.000128083
Heightened Def Con from 0.000128083 +++++++++++++++++++++++++++to 0.000128083
Heightened Def Con from 0.000128083 ++++++++++++++++++++++++++++to 0.000128084
Heightened Def Con from 0.000128084 ++++++++++++++++++++++++++to 0.000128084
Heightened Def Con from 0.000128084 ++++++++++++++++++++++++++++to 0.000128085
Heightened Def Con from 0.000128086 ++++++++++++++++++++++++++++to 0.000128087
Heightened Def Con from 0.000128087 +++++++++++++++++++++++++++to 0.000128087
Heightened Def Con from 0.000128087 ++++++++++++++++++++++++++++to 0.000128088
Heightened Def Con from 0.000128088 ++++++++++++++++++++++++++++to 0.000128089
Heightened Def Con from 0.000128089 +++++++++++++++++++++++++++to 0.000128089
Heightened Def Con from 0.000128089 ++++++++++++++++++++++++++++to 0.00012809
Heightened Def Con from 0.000128091 ++++++++++++++++++++++++++++to 0.000128092
Heightened Def Con from 0.000128092 ++++++++++++++++++++++++++to 0.000128092
Heightened Def Con from 0.000128092 ++++++++++++++++++++++++++++to 0.000128093
Heightened Def Con from 0.000128093 ++++++++++++++++++++++++++to 0.000128093
Heightened Def Con from 0.000128093 ++++++++++++++++++++++++++++to 0.000128094
Heightened Def Con from 0.000128094 +++++++++++++++++++++++++++to 0.000128094
Heightened Def Con from 0.000128094 ++++++++++++++++++++++++++++to 0.000128095
Heightened Def Con from 0.000128096 +++++++++++++++++++++++++to 0.000128096
Heightened Def Con from 0.000128096 ++++++++++++++++++++++++++++to 0.000128097
Heightened Def Con from 0.000128097 ++++++++++++++++++++++++++++to 0.000128098
Heightened Def Con from 0.000128098 ++++++++++++++++++++++++to 0.000128098
Heightened Def Con from 0.000128098 ++++++++++++++++++++++++++++to 0.000128099
Heightened Def Con from 0.000128099 +++++++++++++++++++++++to 0.000128099
Heightened Def Con from 0.000128099 ++++++++++++++++++++++++++++to 0.0001281
Heightened Def Con from 0.000128101 +++++++++++++++++++++++++++to 0.000128101
Heightened Def Con from 0.000128101 ++++++++++++++++++++++++++++to 0.000128102
Heightened Def Con from 0.000128102 +++++++++++++++++++++++++++to 0.000128102
Heightened Def Con from 0.000128102 ++++++++++++++++++++++++++++to 0.000128103
Heightened Def Con from 0.000128103 +++++++++++++++++++++++++++to 0.000128103
Heightened Def Con from 0.000128103 ++++++++++++++++++++++++++++to 0.000128104
Heightened Def Con from 0.000128104 +++++++++++++++++++++++++++to 0.000128104
Heightened Def Con from 0.000128104 ++++++++++++++++++++++++++++to 0.000128105
Heightened Def Con from 0.000128106 +++++++++++++++++++++++++++to 0.000128106
Heightened Def Con from 0.000128106 ++++++++++++++++++++++++++++to 0.000128107
Heightened Def Con from 0.000128107 ++++++++++++++++++++++++++++to 0.000128108
Heightened Def Con from 0.000128108 ++++++++++++++++++++++++++to 0.000128108
Heightened Def Con from 0.000128108 ++++++++++++++++++++++++++++to 0.000128109
Heightened Def Con from 0.000128109 +++++++++++++++++++++++++++to 0.000128109
Heightened Def Con from 0.000128109 ++++++++++++++++++++++++++++to 0.00012811
Heightened Def Con from 0.000128111 ++++++++++++++++++++++++++++to 0.000128112
Heightened Def Con from 0.000128112 ++++++++++++++++++++++++++++to 0.000128113
Heightened Def Con from 0.000128113 +++++++++++++++++++++++++++to 0.000128113
Heightened Def Con from 0.000128113 ++++++++++++++++++++++++++++to 0.000128114
Heightened Def Con from 0.000128114 +++++++++++++++++++++++++++to 0.000128114
Heightened Def Con from 0.000128114 ++++++++++++++++++++++++++++to 0.000128115
Heightened Def Con from 0.000128116 +++++++++++++++++++++++++++to 0.000128116
Heightened Def Con from 0.000128116 ++++++++++++++++++++++++++++to 0.000128117
Heightened Def Con from 0.000128117 +++++++++++++++++++++++++++to 0.000128117
Heightened Def Con from 0.000128117 ++++++++++++++++++++++++++++to 0.000128118
Heightened Def Con from 0.000128118 ++++++++++++++++++++++++++++to 0.000128119
Heightened Def Con from 0.000128119 ++++++++++++++++++++++++++++to 0.00012812
Heightened Def Con from 0.000128121 +++++++++++++++++++++++++++to 0.000128121
Heightened Def Con from 0.000128121 ++++++++++++++++++++++++++++to 0.000128122
Heightened Def Con from 0.000128122 ++++++++++++++++++++++++++++to 0.000128123
Heightened Def Con from 0.000128123 +++++++++++++++++++++++++++to 0.000128123
Heightened Def Con from 0.000128123 ++++++++++++++++++++++++++++to 0.000128124
Heightened Def Con from 0.000128124 +++++++++++++++++++++++++++to 0.000128124
Heightened Def Con from 0.000128124 ++++++++++++++++++++++++++++to 0.000128125
Heightened Def Con from 0.000128126 ++++++++++++++++++++++++++++to 0.000128127
Heightened Def Con from 0.000128127 +++++++++++++++++++++++++++to 0.000128127
Heightened Def Con from 0.000128127 ++++++++++++++++++++++++++++to 0.000128128
Heightened Def Con from 0.000128128 +++++++++++++++++++++++++++to 0.000128128
Heightened Def Con from 0.000128128 ++++++++++++++++++++++++++++to 0.000128129
Heightened Def Con from 0.000128129 ++++++++++++++++++++++++++++to 0.00012813
Heightened Def Con from 0.000128131 +++++++++++++++++++++++++++to 0.000128131
Heightened Def Con from 0.000128131 ++++++++++++++++++++++++++++to 0.000128132
Heightened Def Con from 0.000128132 +++++++++++++++++++++++++++to 0.000128132
Heightened Def Con from 0.000128132 ++++++++++++++++++++++++++++to 0.000128133
Heightened Def Con from 0.000128133 ++++++++++++++++++++++++to 0.000128133
Heightened Def Con from 0.000128133 ++++++++++++++++++++++++++++to 0.000128134
Heightened Def Con from 0.000128134 ++++++++++++++++++++++++++to 0.000128134
Heightened Def Con from 0.000128134 ++++++++++++++++++++++++++++to 0.000128135
Heightened Def Con from 0.000128136 ++++++++++++++++++++++++++++to 0.000128137
Heightened Def Con from 0.000128137 ++++++++++++++++++++++++++to 0.000128137
Heightened Def Con from 0.000128137 ++++++++++++++++++++++++++++to 0.000128138
Heightened Def Con from 0.000128138 +++++++++++++++++++++++++to 0.000128138
Heightened Def Con from 0.000128138 ++++++++++++++++++++++++++++to 0.000128139
Heightened Def Con from 0.000128139 +++++++++++++++++++++++++++to 0.000128139
Heightened Def Con from 0.000128139 ++++++++++++++++++++++++++++to 0.00012814
Heightened Def Con from 0.000128141 +++++++++++++++++++++++++++to 0.000128141
Heightened Def Con from 0.000128141 ++++++++++++++++++++++++++++to 0.000128142
Heightened Def Con from 0.000128142 +++++++++++++++++++++++to 0.000128142
Heightened Def Con from 0.000128142 ++++++++++++++++++++++++++++to 0.000128143
Heightened Def Con from 0.000128143 ++++++++++++++++++++++++++++to 0.000128144
Heightened Def Con from 0.000128144 +++++++++++++++++++++++++++to 0.000128144
Heightened Def Con from 0.000128144 ++++++++++++++++++++++++++++to 0.000128145
Heightened Def Con from 0.000128146 +++++++++++++++++++++++++++to 0.000128146
Heightened Def Con from 0.000128146 ++++++++++++++++++++++++++++to 0.000128147
Heightened Def Con from 0.000128147 +++++++++++++++++++++++++++to 0.000128147
Heightened Def Con from 0.000128147 ++++++++++++++++++++++++++++to 0.000128148
Heightened Def Con from 0.000128148 +++++++++++++++++++++++++++to 0.000128148
Heightened Def Con from 0.000128148 ++++++++++++++++++++++++++++to 0.000128149
Heightened Def Con from 0.000128149 +++++++++++++++++++++++++to 0.000128149
Heightened Def Con from 0.000128149 ++++++++++++++++++++++++++++to 0.00012815
Heightened Def Con from 0.000128151 ++++++++++++++++++++++++++++to 0.000128152
Heightened Def Con from 0.000128152 ++++++++++++++++++++++++++++to 0.000128153
Heightened Def Con from 0.000128153 ++++++++++++++++++++++++to 0.000128153
Heightened Def Con from 0.000128153 ++++++++++++++++++++++++++++to 0.000128154
Heightened Def Con from 0.000128154 +++++++++++++++++++++++++++to 0.000128154
Heightened Def Con from 0.000128154 ++++++++++++++++++++++++++++to 0.000128155
Heightened Def Con from 0.000128156 +++++++++++++++++++++++++to 0.000128156
Heightened Def Con from 0.000128156 ++++++++++++++++++++++++++++to 0.000128157
[...]
Heightened Def Con from 0.000130507 +++++++++++++++++++++++++++to 0.000130507
Heightened Def Con from 0.000130507 ++++++++++++++++++++++++++++to 0.000130508
Heightened Def Con from 0.000130508 +++++++++++++++++++++++++++to 0.000130508
Heightened Def Con from 0.000130508 ++++++++++++++++++++++++++++to 0.000130509
Heightened Def Con from 0.000130509 ++++++++++++++++++++++++++++to 0.00013051
Heightened Def Con from 0.00013051 ++++++++++++++++++++++++to 0.00013051
Heightened Def Con from 0.00013051 ++++++++++++++++++++++++++++to 0.000130511
Heightened Def Con from 0.000130512 ++++++++++++++++++++++++++++to 0.000130513
Heightened Def Con from 0.000130513 ++++++++++++++++++++++++to 0.000130513
Heightened Def Con from 0.000130513 ++++++++++++++++++++++++++++to 0.000130514
Heightened Def Con from 0.000130514 +++++++++++++++++++++++to 0.000130514
Heightened Def Con from 0.000130514 ++++++++++++++++++++++++++++to 0.000130515
Heightened Def Con from 0.000130515 +++++++++++++++++++++++++++to 0.000130515
Heightened Def Con from 0.000130515 ++++++++++++++++++++++++++++to 0.000130516
Heightened Def Con from 0.000130517 +++++++++++++++++++++++++++to 0.000130517
Heightened Def Con from 0.000130517 ++++++++++++++++++++++++++++to 0.000130518
Heightened Def Con from 0.000130518 ++++++++++++++++++++++++++++to 0.000130519
Heightened Def Con from 0.000130519 +++++++++++++++++++++++++++to 0.000130519
Heightened Def Con from 0.000130519 ++++++++++++++++++++++++++++to 0.00013052
Heightened Def Con from 0.00013052 ++++++++++++++++++++++++++to 0.00013052
Heightened Def Con from 0.00013052 ++++++++++++++++++++++++++++to 0.000130521
Heightened Def Con from 0.000130522 +++++++++++++++++++++++to 0.000130522
Heightened Def Con from 0.000130522 ++++++++++++++++++++++++++++to 0.000130523
Heightened Def Con from 0.000130523 +++++++++++++++++++++++++++to 0.000130523
Heightened Def Con from 0.000130523 ++++++++++++++++++++++++++++to 0.000130524
Heightened Def Con from 0.000130524 +++++++++++++++++++++++++to 0.000130524
Heightened Def Con from 0.000130524 ++++++++++++++++++++++++++++to 0.000130525
Heightened Def Con from 0.000130525 ++++++++++++++++++++++++++++to 0.000130526
Heightened Def Con from 0.000130527 ++++++++++++++++++++++++++to 0.000130527
Heightened Def Con from 0.000130527 ++++++++++++++++++++++++++++to 0.000130528
Heightened Def Con from 0.000130528 ++++++++++++++++++++++++++++to 0.000130529
Heightened Def Con from 0.000130529 +++++++++++++++++++++++++++to 0.000130529
Heightened Def Con from 0.000130529 ++++++++++++++++++++++++++++to 0.00013053
Heightened Def Con from 0.00013053 +++++++++++++++++++++++++++to 0.00013053
Heightened Def Con from 0.00013053 ++++++++++++++++++++++++++++to 0.000130531
Heightened Def Con from 0.000130532 +++++++++++++++++++++++++to 0.000130532
Heightened Def Con from 0.000130532 ++++++++++++++++++++++++++++to 0.000130533
Heightened Def Con from 0.000130533 ++++++++++++++++++++++++++++to 0.000130534
Heightened Def Con from 0.000130534 ++++++++++++++++++++++++to 0.000130534
Heightened Def Con from 0.000130534 ++++++++++++++++++++++++++++to 0.000130535
Heightened Def Con from 0.000130535 +++++++++++++++++++++++++to 0.000130535
Heightened Def Con from 0.000130535 ++++++++++++++++++++++++++++to 0.000130536
Heightened Def Con from 0.000130537 +++++++++++++++++++++++++to 0.000130537
Heightened Def Con from 0.000130537 ++++++++++++++++++++++++++++to 0.000130538
Heightened Def Con from 0.000130538 ++++++++++++++++++++++++++++to 0.000130539
Heightened Def Con from 0.000130539 +++++++++++++++++++++++++++to 0.000130539
Heightened Def Con from 0.000130539 ++++++++++++++++++++++++++++to 0.00013054
Heightened Def Con from 0.000130541 ++++++++++++++++++++++++++to 0.000130541
Heightened Def Con from 0.000130541 ++++++++++++++++++++++++++++to 0.000130542
Heightened Def Con from 0.000130542 +++++++++++++++++++++++++++to 0.000130542
Heightened Def Con from 0.000130542 ++++++++++++++++++++++++++++to 0.000130543
Heightened Def Con from 0.000130543 +++++++++++++++++++++++++++to 0.000130543
Heightened Def Con from 0.000130543 ++++++++++++++++++++++++++++to 0.000130544
Heightened Def Con from 0.000130544 ++++++++++++++++++++++++++to 0.000130544
Heightened Def Con from 0.000130544 ++++++++++++++++++++++++++++to 0.000130545
Heightened Def Con from 0.000130546 +++++++++++++++++++++++++to 0.000130546
Heightened Def Con from 0.000130546 ++++++++++++++++++++++++++++to 0.000130547
Heightened Def Con from 0.000130547 ++++++++++++++++++++++++++to 0.000130547
Heightened Def Con from 0.000130547 ++++++++++++++++++++++++++++to 0.000130548
Heightened Def Con from 0.000130548 +++++++++++++++++++++++++to 0.000130548
Heightened Def Con from 0.000130548 ++++++++++++++++++++++++++++to 0.000130549
Heightened Def Con from 0.000130549 ++++++++++++++++++++++++++to 0.000130549
Heightened Def Con from 0.000130549 ++++++++++++++++++++++++++++to 0.00013055
Heightened Def Con from 0.000130551 ++++++++++++++++++++++++to 0.000130551
Heightened Def Con from 0.000130551 ++++++++++++++++++++++++++++to 0.000130552
Heightened Def Con from 0.000130552 ++++++++++++++++++++++++++++to 0.000130553
Heightened Def Con from 0.000130553 ++++++++++++++++++++++++++++to 0.000130554
Heightened Def Con from 0.000130554 ++++++++++++++++++++++++to 0.000130554
Heightened Def Con from 0.000130554 ++++++++++++++++++++++++++++to 0.000130555
Heightened Def Con from 0.000130556 ++++++++++++++++++++++++to 0.000130556
Heightened Def Con from 0.000130556 ++++++++++++++++++++++++++++to 0.000130557
Heightened Def Con from 0.000130557 ++++++++++++++++++++++++++++to 0.000130558
Heightened Def Con from 0.000130558 ++++++++++++++++++++++++to 0.000130558
Heightened Def Con from 0.000130558 ++++++++++++++++++++++++++++to 0.000130559
Heightened Def Con from 0.000130559 ++++++++++++++++++++++++++++to 0.00013056
Heightened Def Con from 0.000130561 ++++++++++++++++++++++++++to 0.000130561
Heightened Def Con from 0.000130561 ++++++++++++++++++++++++++++to 0.000130562
Heightened Def Con from 0.000130562 +++++++++++++++++++++++++++to 0.000130562
Heightened Def Con from 0.000130562 ++++++++++++++++++++++++++++to 0.000130563
Heightened Def Con from 0.000130563 ++++++++++++++++++++++++++++to 0.000130564
Heightened Def Con from 0.000130564 +++++++++++++++++++++++++++to 0.000130564
Heightened Def Con from 0.000130564 ++++++++++++++++++++++++++++to 0.000130565
Heightened Def Con from 0.000130566 ++++++++++++++++++++++++++++to 0.000130567
Heightened Def Con from 0.000130567 ++++++++++++++++++++++++++to 0.000130567
Heightened Def Con from 0.000130567 ++++++++++++++++++++++++++++to 0.000130568
Heightened Def Con from 0.000130568 +++++++++++++++++++++++++++to 0.000130568
Heightened Def Con from 0.000130568 ++++++++++++++++++++++++++++to 0.000130569
Heightened Def Con from 0.000130569 ++++++++++++++++++++++++++++to 0.00013057
Heightened Def Con from 0.000130571 +++++++++++++++++++++++++++to 0.000130571
Heightened Def Con from 0.000130571 ++++++++++++++++++++++++++++to 0.000130572
Heightened Def Con from 0.000130572 +++++++++++++++++++++++++++to 0.000130572
Heightened Def Con from 0.000130572 ++++++++++++++++++++++++++++to 0.000130573
Heightened Def Con from 0.000130573 ++++++++++++++++++++++++++++to 0.000130574
Heightened Def Con from 0.000130574 +++++++++++++++++++++++++++to 0.000130574
Heightened Def Con from 0.000130574 ++++++++++++++++++++++++++++to 0.000130575
Heightened Def Con from 0.000130576 +++++++++++++++++++++++++++to 0.000130576
Heightened Def Con from 0.000130576 ++++++++++++++++++++++++++++to 0.000130577
Heightened Def Con from 0.000130577 +++++++++++++++++++++++++++to 0.000130577
Heightened Def Con from 0.000130577 ++++++++++++++++++++++++++++to 0.000130578
Heightened Def Con from 0.000130578 ++++++++++++++++++++++++++to 0.000130578
Heightened Def Con from 0.000130578 ++++++++++++++++++++++++++++to 0.000130579
Heightened Def Con from 0.000130579 ++++++++++++++++++++++++++to 0.000130579
Heightened Def Con from 0.000130579 ++++++++++++++++++++++++++++to 0.00013058
Heightened Def Con from 0.000130581 +++++++++++++++++++++++++to 0.000130581
Heightened Def Con from 0.000130581 ++++++++++++++++++++++++++++to 0.000130582
Heightened Def Con from 0.000130582 +++++++++++++++++++++++++to 0.000130582
Heightened Def Con from 0.000130582 ++++++++++++++++++++++++++++to 0.000130583
Heightened Def Con from 0.000130583 +++++++++++++++++++++++++++to 0.000130583
Heightened Def Con from 0.000130583 ++++++++++++++++++++++++++++to 0.000130584
Heightened Def Con from 0.000130584 +++++++++++++++++++++++++to 0.000130584
Heightened Def Con from 0.000130584 ++++++++++++++++++++++++++++to 0.000130585
Heightened Def Con from 0.000130586 ++++++++++++++++++++++++++++to 0.000130587
Heightened Def Con from 0.000130587 +++++++++++++++++++++++++to 0.000130587
Heightened Def Con from 0.000130587 ++++++++++++++++++++++++++++to 0.000130588
Heightened Def Con from 0.000130588 +++++++++++++++++++++++++++to 0.000130588
Heightened Def Con from 0.000130588 ++++++++++++++++++++++++++++to 0.000130589
Heightened Def Con from 0.000130589 ++++++++++++++++++++++++++to 0.000130589
Heightened Def Con from 0.000130589 ++++++++++++++++++++++++++++to 0.00013059
Heightened Def Con from 0.000130591 ++++++++++++++++++++++++++to 0.000130591
Heightened Def Con from 0.000130591 ++++++++++++++++++++++++++++to 0.000130592
Heightened Def Con from 0.000130592 ++++++++++++++++++++++++++++to 0.000130593
Heightened Def Con from 0.000130593 +++++++++++++++++++++++++++to 0.000130593
Heightened Def Con from 0.000130593 ++++++++++++++++++++++++++++to 0.000130594
Heightened Def Con from 0.000130594 ++++++++++++++++++++++++++++to 0.000130595
Heightened Def Con from 0.000130596 ++++++++++++++++++++++++++++to 0.000130597
Heightened Def Con from 0.000130597 ++++++++++++++++++++++++++++to 0.000130598
Heightened Def Con from 0.000130598 ++++++++++++++++++++++++++++to 0.000130599
Heightened Def Con from 0.000130599 ++++++++++++++++++++++++++++to 0.0001306
Heightened Def Con from 0.000130601 +++++++++++++++++++++++++to 0.000130601
Heightened Def Con from 0.000130601 ++++++++++++++++++++++++++++to 0.000130602
Heightened Def Con from 0.000130602 +++++++++++++++++++++++++++to 0.000130602
Heightened Def Con from 0.000130602 ++++++++++++++++++++++++++++to 0.000130603
Heightened Def Con from 0.000130603 ++++++++++++++++++++++++to 0.000130603
Heightened Def Con from 0.000130603 ++++++++++++++++++++++++++++to 0.000130604
Heightened Def Con from 0.000130604 +++++++++++++++++++++++++to 0.000130604
Heightened Def Con from 0.000130604 ++++++++++++++++++++++++++++to 0.000130605
Heightened Def Con from 0.000130606 ++++++++++++++++++++++++++++to 0.000130607
Heightened Def Con from 0.000130607 +++++++++++++++++++++++++++to 0.000130607
Heightened Def Con from 0.000130607 ++++++++++++++++++++++++++++to 0.000130608
Heightened Def Con from 0.000130608 ++++++++++++++++++++++++++to 0.000130608
Heightened Def Con from 0.000130608 ++++++++++++++++++++++++++++to 0.000130609
Heightened Def Con from 0.000130609 ++++++++++++++++++++++++++++to 0.00013061
Heightened Def Con from 0.000130611 +++++++++++++++++++++++++++to 0.000130611
Heightened Def Con from 0.000130611 ++++++++++++++++++++++++++++to 0.000130612
Heightened Def Con from 0.000130612 ++++++++++++++++++++++++++++to 0.000130613
Heightened Def Con from 0.000130613 ++++++++++++++++++++++++++to 0.000130613
Heightened Def Con from 0.000130613 ++++++++++++++++++++++++++++to 0.000130614
Heightened Def Con from 0.000130614 ++++++++++++++++++++++++++++to 0.000130615
Heightened Def Con from 0.000130616 ++++++++++++++++++++++++to 0.000130616
Heightened Def Con from 0.000130616 ++++++++++++++++++++++++++++to 0.000130617
Heightened Def Con from 0.000130617 +++++++++++++++++++++++++++to 0.000130617
Heightened Def Con from 0.000130617 ++++++++++++++++++++++++++++to 0.000130618
Heightened Def Con from 0.000130618 ++++++++++++++++++++++++to 0.000130618
Heightened Def Con from 0.000130618 ++++++++++++++++++++++++++++to 0.000130619
Heightened Def Con from 0.000130619 +++++++++++++++++++++++++++to 0.000130619
Heightened Def Con from 0.000130619 ++++++++++++++++++++++++++++to 0.00013062
Heightened Def Con from 0.000130621 ++++++++++++++++++++++++++++to 0.000130622
Heightened Def Con from 0.000130622 ++++++++++++++++++++++++++to 0.000130622
Heightened Def Con from 0.000130622 ++++++++++++++++++++++++++++to 0.000130623
Heightened Def Con from 0.000130623 ++++++++++++++++++++++++++to 0.000130623
Heightened Def Con from 0.000130623 ++++++++++++++++++++++++++++to 0.000130624
Heightened Def Con from 0.000130624 ++++++++++++++++++++++++++to 0.000130624
Heightened Def Con from 0.000130624 ++++++++++++++++++++++++++++to 0.000130625
Heightened Def Con from 0.000130626 +++++++++++++++++++++++++++to 0.000130626
Heightened Def Con from 0.000130626 ++++++++++++++++++++++++++++to 0.000130627
Heightened Def Con from 0.000130627 +++++++++++++++++++++++++++to 0.000130627
Heightened Def Con from 0.000130627 ++++++++++++++++++++++++++++to 0.000130628
Heightened Def Con from 0.000130628 +++++++++++++++++++++++++++to 0.000130628
Heightened Def Con from 0.000130628 ++++++++++++++++++++++++++++to 0.000130629
Heightened Def Con from 0.000130629 ++++++++++++++++++++++++++to 0.000130629
Heightened Def Con from 0.000130629 ++++++++++++++++++++++++++++to 0.00013063
Heightened Def Con from 0.000130631 +++++++++++++++++++++++++++to 0.000130631
Heightened Def Con from 0.000130631 ++++++++++++++++++++++++++++to 0.000130632
Heightened Def Con from 0.000130632 +++++++++++++++++++++++++++to 0.000130632
Heightened Def Con from 0.000130632 ++++++++++++++++++++++++++++to 0.000130633
Heightened Def Con from 0.000130633 ++++++++++++++++++++++++++++to 0.000130634
Heightened Def Con from 0.000130634 +++++++++++++++++++++++to 0.000130634
Heightened Def Con from 0.000130634 ++++++++++++++++++++++++++++to 0.000130635
Heightened Def Con from 0.000130636 +++++++++++++++++++++++++++to 0.000130636
Heightened Def Con from 0.000130636 ++++++++++++++++++++++++++++to 0.000130637
Heightened Def Con from 0.000130637 ++++++++++++++++++++++++++to 0.000130637
Heightened Def Con from 0.000130637 ++++++++++++++++++++++++++++to 0.000130638
Heightened Def Con from 0.000130638 ++++++++++++++++++++++++++to 0.000130638
Heightened Def Con from 0.000130638 ++++++++++++++++++++++++++++to 0.000130639
Heightened Def Con from 0.000130639 +++++++++++++++++++++++++++to 0.000130639
Heightened Def Con from 0.000130639 ++++++++++++++++++++++++++++to 0.00013064
Heightened Def Con from 0.000130641 ++++++++++++++++++++++++++to 0.000130641
Heightened Def Con from 0.000130641 ++++++++++++++++++++++++++++to 0.000130642
Heightened Def Con from 0.000130642 ++++++++++++++++++++++++++++to 0.000130643
Heightened Def Con from 0.000130643 +++++++++++++++++++++++++++to 0.000130643
Heightened Def Con from 0.000130643 ++++++++++++++++++++++++++++to 0.000130644
Heightened Def Con from 0.000130644 ++++++++++++++++++++++++++++to 0.000130645
Heightened Def Con from 0.000130646 ++++++++++++++++++++++++++to 0.000130646
Heightened Def Con from 0.000130646 ++++++++++++++++++++++++++++to 0.000130647
Heightened Def Con from 0.000130647 ++++++++++++++++++++++++++to 0.000130647
Heightened Def Con from 0.000130647 ++++++++++++++++++++++++++++to 0.000130648
Heightened Def Con from 0.000130648 ++++++++++++++++++++++++++++to 0.000130649
Heightened Def Con from 0.000130649 ++++++++++++++++++++++++++to 0.000130649
Heightened Def Con from 0.000130649 ++++++++++++++++++++++++++++to 0.00013065
Heightened Def Con from 0.000130651 +++++++++++++++++++++++++++to 0.000130651
Heightened Def Con from 0.000130651 ++++++++++++++++++++++++++++to 0.000130652
Heightened Def Con from 0.000130652 ++++++++++++++++++++++++++++to 0.000130653
Heightened Def Con from 0.000130653 +++++++++++++++++++++++++++to 0.000130653
Heightened Def Con from 0.000130653 ++++++++++++++++++++++++++++to 0.000130654
Heightened Def Con from 0.000130654 +++++++++++++++++++++++++++to 0.000130654
Heightened Def Con from 0.000130654 ++++++++++++++++++++++++++++to 0.000130655
Heightened Def Con from 0.000130656 ++++++++++++++++++++++++++to 0.000130656
Heightened Def Con from 0.000130656 ++++++++++++++++++++++++++++to 0.000130657
Heightened Def Con from 0.000130657 ++++++++++++++++++++++++++++to 0.000130658
Heightened Def Con from 0.000130658 +++++++++++++++++++++++to 0.000130658
Heightened Def Con from 0.000130658 ++++++++++++++++++++++++++++to 0.000130659
Heightened Def Con from 0.000130659 +++++++++++++++++++++++++++to 0.000130659
Heightened Def Con from 0.000130659 ++++++++++++++++++++++++++++to 0.00013066
Heightened Def Con from 0.000130661 ++++++++++++++++++++++++++++to 0.000130662
Heightened Def Con from 0.000130662 +++++++++++++++++++++++++to 0.000130662
Heightened Def Con from 0.000130662 ++++++++++++++++++++++++++++to 0.000130663
Heightened Def Con from 0.000130663 ++++++++++++++++++++++++++to 0.000130663
Heightened Def Con from 0.000130663 ++++++++++++++++++++++++++++to 0.000130664
Heightened Def Con from 0.000130664 +++++++++++++++++++++++++to 0.000130664
Heightened Def Con from 0.000130664 ++++++++++++++++++++++++++++to 0.000130665
Heightened Def Con from 0.000130666 ++++++++++++++++++++++++++++to 0.000130667
Heightened Def Con from 0.000130667 ++++++++++++++++++++++++++++to 0.000130668
Heightened Def Con from 0.000130668 +++++++++++++++++++++++++++to 0.000130668
Heightened Def Con from 0.000130668 ++++++++++++++++++++++++++++to 0.000130669
Heightened Def Con from 0.000130669 +++++++++++++++++++++++++++to 0.000130669
Heightened Def Con from 0.000130669 ++++++++++++++++++++++++++++to 0.00013067
Heightened Def Con from 0.000130671 ++++++++++++++++++++++++++++to 0.000130672
Heightened Def Con from 0.000130672 +++++++++++++++++++++to 0.000130672
Heightened Def Con from 0.000130672 ++++++++++++++++++++++++++++to 0.000130673
Heightened Def Con from 0.000130673 ++++++++++++++++++++++++to 0.000130673
Heightened Def Con from 0.000130673 ++++++++++++++++++++++++++++to 0.000130674
Heightened Def Con from 0.000130674 ++++++++++++++++++++++++++++to 0.000130675
Heightened Def Con from 0.000130676 ++++++++++++++++++++++++++to 0.000130676
Heightened Def Con from 0.000130676 ++++++++++++++++++++++++++++to 0.000130677
Heightened Def Con from 0.000130677 ++++++++++++++++++++++++to 0.000130677
Heightened Def Con from 0.000130677 ++++++++++++++++++++++++++++to 0.000130678
Heightened Def Con from 0.000130678 +++++++++++++++++++++++++++to 0.000130678
Heightened Def Con from 0.000130678 ++++++++++++++++++++++++++++to 0.000130679
Heightened Def Con from 0.000130679 ++++++++++++++++++++++++++++to 0.00013068
Heightened Def Con from 0.000130681 ++++++++++++++++++++++++++to 0.000130681
Heightened Def Con from 0.000130681 ++++++++++++++++++++++++++++to 0.000130682
Heightened Def Con from 0.000130682 +++++++++++++++++++++++++++to 0.000130682
Heightened Def Con from 0.000130682 ++++++++++++++++++++++++++++to 0.000130683
Heightened Def Con from 0.000130683 ++++++++++++++++++++++++++to 0.000130683
Heightened Def Con from 0.000130683 ++++++++++++++++++++++++++++to 0.000130684
Heightened Def Con from 0.000130684 ++++++++++++++++++++++++++to 0.000130684
Heightened Def Con from 0.000130684 ++++++++++++++++++++++++++++to 0.000130685
Heightened Def Con from 0.000130686 +++++++++++++++++++++++++++to 0.000130686
Heightened Def Con from 0.000130686 ++++++++++++++++++++++++++++to 0.000130687
Heightened Def Con from 0.000130687 +++++++++++++++++++++++++++to 0.000130687
Heightened Def Con from 0.000130687 ++++++++++++++++++++++++++++to 0.000130688
Heightened Def Con from 0.000130688 +++++++++++++++++++++++++++to 0.000130688
Heightened Def Con from 0.000130688 ++++++++++++++++++++++++++++to 0.000130689
Heightened Def Con from 0.000130689 +++++++++++++++++++++++++to 0.000130689
Heightened Def Con from 0.000130689 ++++++++++++++++++++++++++++to 0.00013069
Heightened Def Con from 0.000130691 