Circuit: * C:\Users\matta\OneDrive\Uni\QUT\Y3S1\EGB240\TwoToneBuzzer\TwoTone(RealBetter).asc

Per .tran options, skipping operating point for transient analysis.
Heightened Def Con from 0.000297908 ++++++++++++++++to 0.000297908
Heightened Def Con from 0.000337955 +++++++++++++++to 0.000337955
Heightened Def Con from 0.000337955 ++++++++++++++to 0.000337955
Heightened Def Con from 0.000337955 +++++++++++++++to 0.000337955
Heightened Def Con from 0.000337955 +++++++++++++++to 0.000337955
Heightened Def Con from 0.000337955 +++++++++++++++to 0.000337955
Heightened Def Con from 0.000337955 +++++++++++++++to 0.000337955
Heightened Def Con from 0.000337955 +++++++++++++++to 0.000337955
Heightened Def Con from 0.000337955 +++++++++++++++to 0.000337955
Heightened Def Con from 0.000337955 +++++++++++++++to 0.000337955
Heightened Def Con from 0.000337955 +++++++++++++++to 0.000337955
Heightened Def Con from 0.000337955 ++++++++++++++to 0.000337955
Heightened Def Con from 0.000337955 +++++++++++++++to 0.000337955
Heightened Def Con from 0.000337955 +++++++++++++++to 0.000337955
Heightened Def Con from 0.000337955 +++++++++++++++to 0.000337955
Heightened Def Con from 0.000337955 +++++++++++++++to 0.000337955
Heightened Def Con from 0.000337955 ++++++++++++++to 0.000337955
Heightened Def Con from 0.000337955 +++++++++++++++to 0.000337955
Heightened Def Con from 0.000337955 ++++++++++++++to 0.000337955
Heightened Def Con from 0.000337955 +++++++++++++++to 0.000337955
Heightened Def Con from 0.000337955 ++++++++++++to 0.000337955
Heightened Def Con from 0.000337955 +++++++++++++++to 0.000337955
Heightened Def Con from 0.000337955 +++++++++++++++to 0.000337955
Heightened Def Con from 0.000337955 +++++++++++++++to 0.000337955
Heightened Def Con from 0.000337955 +++++++++++++++to 0.000337955
Heightened Def Con from 0.000337955 +++++++++++++++to 0.000337955
Heightened Def Con from 0.000337955 +++++++++++++++to 0.000337955
Heightened Def Con from 0.000337955 +++++++++++++++to 0.000337955
Heightened Def Con from 0.000337955 +++++++++++++++to 0.000337955
Heightened Def Con from 0.000337955 +++++++++++++++to 0.000337955
Heightened Def Con from 0.000337955 +++++++++++++++to 0.000337955
Heightened Def Con from 0.000337955 +++++++++++++++to 0.000337955
Heightened Def Con from 0.000337955 +++++++++++++++to 0.000337955
Heightened Def Con from 0.000337955 +++++++++++++++to 0.000337955
Heightened Def Con from 0.000337955 +++++++++++++++to 0.000337955
Heightened Def Con from 0.000337955 +++++++++++++++to 0.000337955
Heightened Def Con from 0.000337955 +++++++++++++++to 0.000337955
Heightened Def Con from 0.000337955 +++++++++++++++to 0.000337955
Heightened Def Con from 0.000337955 +++++++++++++++to 0.000337955
Heightened Def Con from 0.000337955 +++++++++++++++to 0.000337955
Heightened Def Con from 0.000337955 +++++++++++++++to 0.000337955
Heightened Def Con from 0.000337955 +++++++++++++++to 0.000337955
Heightened Def Con from 0.000337955 +++++++++++++++to 0.000337955
Heightened Def Con from 0.000337955 +++++++++++++++to 0.000337955
Heightened Def Con from 0.000337955 +++++++++++++++to 0.000337955
Heightened Def Con from 0.000337955 +++++++++++++++to 0.000337955
Heightened Def Con from 0.000337955 +++++++++++++++to 0.000337955
Heightened Def Con from 0.000337955 +++++++++++++++to 0.000337955
Heightened Def Con from 0.000337955 +++++++++++++++to 0.000337955
Heightened Def Con from 0.000337955 +++++++++++++++to 0.000337955
Heightened Def Con from 0.000337955 +++++++++++++++to 0.000337955
Heightened Def Con from 0.000337955 +++++++++++++++to 0.000337955
Heightened Def Con from 0.000337955 +++++++++++++++to 0.000337955
Heightened Def Con from 0.000337955 +++++++++++++++to 0.000337955
Heightened Def Con from 0.000337955 +++++++++++++++to 0.000337955
Heightened Def Con from 0.000337955 +++++++++++++++to 0.000337955
Heightened Def Con from 0.000337955 +++++++++++++++to 0.000337955
Heightened Def Con from 0.000337955 +++++++++++++++to 0.000337955
Heightened Def Con from 0.000337955 +++++++++++++++to 0.000337955
Heightened Def Con from 0.000337955 +++++++++++++++to 0.000337955
Heightened Def Con from 0.000337955 +++++++++++++++to 0.000337955
Heightened Def Con from 0.000337955 +++++++++++++++to 0.000337955
Heightened Def Con from 0.000337955 +++++++++++++++to 0.000337955
Heightened Def Con from 0.000337955 +++++++++++++++to 0.000337955
Heightened Def Con from 0.000337955 +++++++++++++++to 0.000337955
Heightened Def Con from 0.000337955 +++++++++++++++to 0.000337955
Heightened Def Con from 0.000337955 +++++++++++++++to 0.000337955
Heightened Def Con from 0.000337955 +++++++++++++++to 0.000337955
Heightened Def Con from 0.000337955 +++++++++++++++to 0.000337955
Heightened Def Con from 0.000337955 +++++++++++++++to 0.000337955
Heightened Def Con from 0.000337955 +++++++++++++++to 0.000337955
Heightened Def Con from 0.000337955 +++++++++++++++to 0.000337955
Heightened Def Con from 0.000337955 +++++++++++++++to 0.000337955
Heightened Def Con from 0.000337955 +++++++++++++++to 0.000337955
Heightened Def Con from 0.000337955 +++++++++++++++to 0.000337955
Heightened Def Con from 0.000337955 +++++++++++++++to 0.000337955
Heightened Def Con from 0.000337955 +++++++++++++++to 0.000337955
Heightened Def Con from 0.000337955 +++++++++++++++to 0.000337955
Heightened Def Con from 0.000337955 +++++++++++++++to 0.000337955
Heightened Def Con from 0.000337955 +++++++++++++++to 0.000337955
Heightened Def Con from 0.000337955 +++++++++++++++to 0.000337955
Heightened Def Con from 0.000337955 +++++++++++++++to 0.000337955
Heightened Def Con from 0.000337955 +++++++++++++++to 0.000337955
Heightened Def Con from 0.000337955 +++++++++++++++to 0.000337955
Heightened Def Con from 0.000337955 +++++++++++++++to 0.000337955
Heightened Def Con from 0.000337955 +++++++++++++++to 0.000337955
Heightened Def Con from 0.000337955 +++++++++++++++to 0.000337955
Heightened Def Con from 0.000337955 +++++++++++++++to 0.000337955
Heightened Def Con from 0.000337955 +++++++++++++++to 0.000337955
Heightened Def Con from 0.000337955 +++++++++++++++to 0.000337955
Heightened Def Con from 0.000337955 +++++++++++++++to 0.000337955
Heightened Def Con from 0.000337955 +++++++++++++++to 0.000337955
Heightened Def Con from 0.000337955 +++++++++++++++to 0.000337955
Heightened Def Con from 0.000337955 +++++++++++++++to 0.000337955
Heightened Def Con from 0.000337955 +++++++++++++++to 0.000337955
Heightened Def Con from 0.000337955 +++++++++++++++to 0.000337955
Heightened Def Con from 0.000337955 +++++++++++++++to 0.000337955
Heightened Def Con from 0.000337955 +++++++++++++++to 0.000337955
Heightened Def Con from 0.000337955 +++++++++++++++to 0.000337955
Heightened Def Con from 0.000337955 +++++++++++++++to 0.000337955
Heightened Def Con from 0.000337955 +++++++++++++++to 0.000337955
Heightened Def Con from 0.000337955 +++++++++++++++to 0.000337955
Heightened Def Con from 0.000337955 +++++++++++++++to 0.000337955
Heightened Def Con from 0.000337955 +++++++++++++++to 0.000337955
Heightened Def Con from 0.000337955 +++++++++++++++to 0.000337955
Heightened Def Con from 0.000337955 +++++++++++++++to 0.000337955
Heightened Def Con from 0.000337955 +++++++++++++++to 0.000337955
Heightened Def Con from 0.000337955 +++++++++++++++to 0.000337955
Heightened Def Con from 0.000337955 +++++++++++++++to 0.000337955
Heightened Def Con from 0.000337955 +++++++++++++++to 0.000337955
Heightened Def Con from 0.000337955 +++++++++++++++to 0.000337955
Heightened Def Con from 0.000337955 +++++++++++++++to 0.000337955
Heightened Def Con from 0.000337955 +++++++++++++++to 0.000337955
Heightened Def Con from 0.000337955 +++++++++++++++to 0.000337955
Heightened Def Con from 0.000337955 +++++++++++++++to 0.000337955
Heightened Def Con from 0.000337955 +++++++++++++++to 0.000337955
Heightened Def Con from 0.000337955 +++++++++++++++to 0.000337955
Heightened Def Con from 0.000337955 +++++++++++++++to 0.000337955
Heightened Def Con from 0.000337955 +++++++++++++++to 0.000337955
Heightened Def Con from 0.000337955 +++++++++++++++to 0.000337955
Heightened Def Con from 0.000337955 +++++++++++++++to 0.000337955
Heightened Def Con from 0.000337955 +++++++++++++++to 0.000337955
Heightened Def Con from 0.000337955 +++++++++++++++to 0.000337955
Heightened Def Con from 0.000337955 +++++++++++++++to 0.000337955
Heightened Def Con from 0.000337955 +++++++++++++++to 0.000337955
Heightened Def Con from 0.000337955 +++++++++++++++to 0.000337955
Heightened Def Con from 0.000337955 +++++++++++++++to 0.000337955
Heightened Def Con from 0.000337955 +++++++++++++++to 0.000337955
Heightened Def Con from 0.000337955 +++++++++++++++to 0.000337955
Heightened Def Con from 0.000337955 +++++++++++++++to 0.000337955
Heightened Def Con from 0.000337955 +++++++++++++++to 0.000337955
Heightened Def Con from 0.000337955 +++++++++++++++to 0.000337955
Heightened Def Con from 0.000337955 +++++++++++++++to 0.000337955
Heightened Def Con from 0.000337955 +++++++++++++++to 0.000337955
Heightened Def Con from 0.000337955 +++++++++++++++to 0.000337955
Heightened Def Con from 0.000337955 +++++++++++++++to 0.000337955
Heightened Def Con from 0.000337955 +++++++++++++++to 0.000337955
Heightened Def Con from 0.000337955 +++++++++++++++to 0.000337955
Heightened Def Con from 0.000337955 +++++++++++++++to 0.000337955
Heightened Def Con from 0.000337955 +++++++++++++++to 0.000337955
Heightened Def Con from 0.000337955 +++++++++++++++to 0.000337955
Heightened Def Con from 0.000337955 +++++++++++++++to 0.000337955
Heightened Def Con from 0.000337955 +++++++++++++++to 0.000337955
Heightened Def Con from 0.000337955 +++++++++++++++to 0.000337955
Heightened Def Con from 0.000337955 +++++++++++++++to 0.000337955
Heightened Def Con from 0.000337955 +++++++++++++++to 0.000337955
Heightened Def Con from 0.000337955 +++++++++++++++to 0.000337955
Heightened Def Con from 0.000337955 +++++++++++++++to 0.000337955
Heightened Def Con from 0.000337955 +++++++++++++++to 0.000337955
Heightened Def Con from 0.000337955 +++++++++++++++to 0.000337955
Heightened Def Con from 0.000337955 +++++++++++++++to 0.000337955
Heightened Def Con from 0.000337955 +++++++++++++++to 0.000337955
Heightened Def Con from 0.000337955 +++++++++++++++to 0.000337955
Heightened Def Con from 0.000337955 +++++++++++++++to 0.000337955
Heightened Def Con from 0.000337955 +++++++++++++++to 0.000337955
Heightened Def Con from 0.000337955 +++++++++++++++to 0.000337955
Heightened Def Con from 0.000337955 +++++++++++++++to 0.000337955
Heightened Def Con from 0.000337955 +++++++++++++++to 0.000337955
Heightened Def Con from 0.000337955 +++++++++++++++to 0.000337955
Heightened Def Con from 0.000337955 +++++++++++++++to 0.000337955
Heightened Def Con from 0.000337955 +++++++++++++++to 0.000337955
Heightened Def Con from 0.000337955 +++++++++++++++to 0.000337955
Heightened Def Con from 0.000337955 +++++++++++++++to 0.000337955
Heightened Def Con from 0.000337955 +++++++++++++++to 0.000337955
Heightened Def Con from 0.000337955 +++++++++++++++to 0.000337955
Heightened Def Con from 0.000337955 +++++++++++++++to 0.000337955
Heightened Def Con from 0.000337955 +++++++++++++++to 0.000337955
Heightened Def Con from 0.000337955 +++++++++++++++to 0.000337955
Heightened Def Con from 0.000337955 +++++++++++++++to 0.000337955
Heightened Def Con from 0.000337955 +++++++++++++++to 0.000337955
Heightened Def Con from 0.000337955 +++++++++++++++to 0.000337955
Heightened Def Con from 0.000337955 +++++++++++++++to 0.000337955
Heightened Def Con from 0.000337955 +++++++++++++++to 0.000337955
Heightened Def Con from 0.000337955 +++++++++++++++to 0.000337955
Heightened Def Con from 0.000337955 +++++++++++++++to 0.000337955
Heightened Def Con from 0.000337955 +++++++++++++++to 0.000337955
Heightened Def Con from 0.000337955 +++++++++++++++to 0.000337955
Heightened Def Con from 0.000337955 +++++++++++++++to 0.000337955
Heightened Def Con from 0.000337955 +++++++++++++++to 0.000337955
Heightened Def Con from 0.000337955 +++++++++++++++to 0.000337955
Heightened Def Con from 0.000337955 +++++++++++++++to 0.000337955
Heightened Def Con from 0.000337955 +++++++++++++++to 0.000337955
Heightened Def Con from 0.000337955 +++++++++++++++to 0.000337955
Heightened Def Con from 0.000337955 +++++++++++++++to 0.000337955
Heightened Def Con from 0.000337955 +++++++++++++++to 0.000337955
Heightened Def Con from 0.000337955 +++++++++++++++to 0.000337955
Heightened Def Con from 0.000337955 +++++++++++++++to 0.000337955
Heightened Def Con from 0.000337955 +++++++++++++++to 0.000337955
Heightened Def Con from 0.000337955 +++++++++++++++to 0.000337955
Heightened Def Con from 0.000337955 +++++++++++++++to 0.000337955
Heightened Def Con from 0.000337955 +++++++++++++++to 0.000337955
Heightened Def Con from 0.000337955 +++++++++++++++to 0.000337955
Heightened Def Con from 0.000337955 +++++++++++++++to 0.000337955
Heightened Def Con from 0.000337955 +++++++++++++++to 0.000337955
Heightened Def Con from 0.000337955 +++++++++++++++to 0.000337955
Heightened Def Con from 0.000337955 +++++++++++++++to 0.000337955
Heightened Def Con from 0.000337955 +++++++++++++++to 0.000337955
Heightened Def Con from 0.000337955 +++++++++++++++to 0.000337955
Heightened Def Con from 0.000337955 +++++++++++++++to 0.000337955
Heightened Def Con from 0.000337955 +++++++++++++++to 0.000337955
Heightened Def Con from 0.000337955 +++++++++++++++to 0.000337955
Heightened Def Con from 0.000337955 +++++++++++++++to 0.000337955
Heightened Def Con from 0.000337955 +++++++++++++++to 0.000337955
Heightened Def Con from 0.000337955 +++++++++++++++to 0.000337955
Heightened Def Con from 0.000337955 +++++++++++++++to 0.000337955
Heightened Def Con from 0.000337955 +++++++++++++++to 0.000337955
Heightened Def Con from 0.000337955 +++++++++++++++to 0.000337955
Heightened Def Con from 0.000337955 +++++++++++++++to 0.000337955
Heightened Def Con from 0.000337955 +++++++++++++++to 0.000337955
Heightened Def Con from 0.000337955 +++++++++++++++to 0.000337955
Heightened Def Con from 0.000337955 +++++++++++++++to 0.000337955
Heightened Def Con from 0.000337955 +++++++++++++++to 0.000337955
Heightened Def Con from 0.000337955 +++++++++++++++to 0.000337955
Heightened Def Con from 0.000337955 +++++++++++++++to 0.000337955
Heightened Def Con from 0.000337955 +++++++++++++++to 0.000337955
Heightened Def Con from 0.000337955 +++++++++++++++to 0.000337955
Heightened Def Con from 0.000337955 +++++++++++++++to 0.000337955
Heightened Def Con from 0.000337955 +++++++++++++++to 0.000337955
Heightened Def Con from 0.000337955 +++++++++++++++to 0.000337955
Heightened Def Con from 0.000337955 +++++++++++++++to 0.000337955
Heightened Def Con from 0.000337955 +++++++++++++++to 0.000337955
Heightened Def Con from 0.000337955 +++++++++++++++to 0.000337955
Heightened Def Con from 0.000337955 +++++++++++++++to 0.000337955
Heightened Def Con from 0.000337955 +++++++++++++++to 0.000337955
Heightened Def Con from 0.000337955 +++++++++++++++to 0.000337955
Heightened Def Con from 0.000337955 +++++++++++++++to 0.000337955
Heightened Def Con from 0.000337955 +++++++++++++++to 0.000337955
Heightened Def Con from 0.000337955 +++++++++++++++to 0.000337955
Heightened Def Con from 0.000337955 +++++++++++++++to 0.000337955
Heightened Def Con from 0.000337955 +++++++++++++++to 0.000337955
Heightened Def Con from 0.000337955 +++++++++++++++to 0.000337955
Heightened Def Con from 0.000337955 +++++++++++++++to 0.000337955
Heightened Def Con from 0.000337955 +++++++++++++++to 0.000337955
Heightened Def Con from 0.000337955 +++++++++++++++to 0.000337955
Heightened Def Con from 0.000337955 +++++++++++++++to 0.000337955
Heightened Def Con from 0.000337955 +++++++++++++++to 0.000337955
Heightened Def Con from 0.000337955 +++++++++++++++to 0.000337955
Heightened Def Con from 0.000337955 +++++++++++++++to 0.000337955
Heightened Def Con from 0.000337955 +++++++++++++++to 0.000337955
Heightened Def Con from 0.000337955 +++++++++++++++to 0.000337955
Heightened Def Con from 0.000337955 +++++++++++++++to 0.000337955
Heightened Def Con from 0.000337955 +++++++++++++++to 0.000337955
Heightened Def Con from 0.000337955 +++++++++++++++to 0.000337955
Heightened Def Con from 0.000337955 +++++++++++++++to 0.000337955
Heightened Def Con from 0.000337955 +++++++++++++++to 0.000337955
Heightened Def Con from 0.000337955 +++++++++++++++to 0.000337955
Heightened Def Con from 0.000337955 +++++++++++++++to 0.000337955
Heightened Def Con from 0.000337955 +++++++++++++++to 0.000337955
Heightened Def Con from 0.000337955 +++++++++++++++to 0.000337955
Heightened Def Con from 0.000337955 +++++++++++++++to 0.000337955
Heightened Def Con from 0.000337955 +++++++++++++++to 0.000337955
Heightened Def Con from 0.000337955 +++++++++++++++to 0.000337955
Heightened Def Con from 0.000337955 +++++++++++++++to 0.000337955
Heightened Def Con from 0.000337955 +++++++++++++++to 0.000337955
Heightened Def Con from 0.000337955 +++++++++++++++to 0.000337955
Heightened Def Con from 0.000337955 +++++++++++++++to 0.000337955
Heightened Def Con from 0.000337955 +++++++++++++++to 0.000337955
Heightened Def Con from 0.000337955 +++++++++++++++to 0.000337955
Heightened Def Con from 0.000337955 +++++++++++++++to 0.000337955
Heightened Def Con from 0.000337955 +++++++++++++++to 0.000337955
Heightened Def Con from 0.000337955 +++++++++++++++to 0.000337955
Heightened Def Con from 0.000337955 +++++++++++++++to 0.000337955
Heightened Def Con from 0.000337955 +++++++++++++++to 0.000337955
Heightened Def Con from 0.000337955 +++++++++++++++to 0.000337955
Heightened Def Con from 0.000337955 +++++++++++++++to 0.000337955
Heightened Def Con from 0.000337955 +++++++++++++++to 0.000337955
Heightened Def Con from 0.000337955 +++++++++++++++to 0.000337955
Heightened Def Con from 0.000337955 +++++++++++++++to 0.000337955
Heightened Def Con from 0.000337955 +++++++++++++++to 0.000337955
Heightened Def Con from 0.000337955 +++++++++++++++to 0.000337955
Heightened Def Con from 0.000337955 +++++++++++++++to 0.000337955
Heightened Def Con from 0.000337955 +++++++++++++++to 0.000337955
Heightened Def Con from 0.000337955 +++++++++++++++to 0.000337955
Heightened Def Con from 0.000337955 +++++++++++++++to 0.000337955
Heightened Def Con from 0.000337955 +++++++++++++++to 0.000337955
Heightened Def Con from 0.000337955 +++++++++++++++to 0.000337955
Heightened Def Con from 0.000337955 +++++++++++++++to 0.000337955
Heightened Def Con from 0.000337955 +++++++++++++++to 0.000337955
Heightened Def Con from 0.000337955 +++++++++++++++to 0.000337955
Heightened Def Con from 0.000337955 +++++++++++++++to 0.000337955
Heightened Def Con from 0.000337955 +++++++++++++++to 0.000337955
Heightened Def Con from 0.000337955 +++++++++++++++to 0.000337955
Heightened Def Con from 0.000337955 +++++++++++++++to 0.000337955
Heightened Def Con from 0.000337955 +++++++++++++++to 0.000337955
Heightened Def Con from 0.000337955 +++++++++++++++to 0.000337955
Heightened Def Con from 0.000337955 +++++++++++++++to 0.000337955
Heightened Def Con from 0.000337955 +++++++++++++++to 0.000337955
Heightened Def Con from 0.000337955 +++++++++++++++to 0.000337955
Heightened Def Con from 0.000337955 +++++++++++++++to 0.000337955
Heightened Def Con from 0.000337955 +++++++++++++++to 0.000337955
Heightened Def Con from 0.000337955 +++++++++++++++to 0.000337955
Heightened Def Con from 0.000337955 +++++++++++++++to 0.000337955
Heightened Def Con from 0.000337955 +++++++++++++++to 0.000337955
Heightened Def Con from 0.000337955 +++++++++++++++to 0.000337955
Heightened Def Con from 0.000337955 +++++++++++++++to 0.000337955
Heightened Def Con from 0.000337955 +++++++++++++++to 0.000337955
Heightened Def Con from 0.000337955 +++++++++++++++to 0.000337955
Heightened Def Con from 0.000337955 +++++++++++++++to 0.000337955
Heightened Def Con from 0.000337955 +++++++++++++++to 0.000337955
Heightened Def Con from 0.000337955 +++++++++++++++to 0.000337955
Heightened Def Con from 0.000337955 +++++++++++++++to 0.000337955
Heightened Def Con from 0.000337955 +++++++++++++++to 0.000337955
Heightened Def Con from 0.000337955 +++++++++++++++to 0.000337955
Heightened Def Con from 0.000337955 +++++++++++++++to 0.000337955
Heightened Def Con from 0.000337955 +++++++++++++++to 0.000337955
Heightened Def Con from 0.000337955 +++++++++++++++to 0.000337955
Heightened Def Con from 0.000337955 +++++++++++++++to 0.000337955
Heightened Def Con from 0.000337955 +++++++++++++++to 0.000337955
Heightened Def Con from 0.000337955 +++++++++++++++to 0.000337955
Heightened Def Con from 0.000337955 +++++++++++++++to 0.000337955
Heightened Def Con from 0.000337955 +++++++++++++++to 0.000337955
Heightened Def Con from 0.000337955 +++++++++++++++to 0.000337955
Heightened Def Con from 0.000337955 +++++++++++++++to 0.000337955
Heightened Def Con from 0.000337955 +++++++++++++++to 0.000337955
Heightened Def Con from 0.000337955 +++++++++++++++to 0.000337955
Heightened Def Con from 0.000337955 +++++++++++++++to 0.000337955
Heightened Def Con from 0.000337955 +++++++++++++++to 0.000337955
Heightened Def Con from 0.000337955 +++++++++++++++to 0.000337955
Heightened Def Con from 0.000337955 +++++++++++++++to 0.000337955
Heightened Def Con from 0.000337955 +++++++++++++++to 0.000337955
Heightened Def Con from 0.000337955 +++++++++++++++to 0.000337955
Heightened Def Con from 0.000337955 +++++++++++++++to 0.000337955
Heightened Def Con from 0.000337955 +++++++++++++++to 0.000337955
Heightened Def Con from 0.000337955 +++++++++++++++to 0.000337955
Heightened Def Con from 0.000337955 +++++++++++++++to 0.000337955
Heightened Def Con from 0.000337955 +++++++++++++++to 0.000337955
Heightened Def Con from 0.000337955 +++++++++++++++to 0.000337955
Heightened Def Con from 0.000337955 +++++++++++++++to 0.000337955
Heightened Def Con from 0.000337955 +++++++++++++++to 0.000337955
Heightened Def Con from 0.000337955 +++++++++++++++to 0.000337955
Heightened Def Con from 0.000337955 +++++++++++++++to 0.000337955
Heightened Def Con from 0.000337955 +++++++++++++++to 0.000337955
Heightened Def Con from 0.000337955 +++++++++++++++to 0.000337955
Heightened Def Con from 0.000337955 +++++++++++++++to 0.000337955
Heightened Def Con from 0.000337955 +++++++++++++++to 0.000337955
Heightened Def Con from 0.000337955 +++++++++++++++to 0.000337955
Heightened Def Con from 0.000337955 +++++++++++++++to 0.000337955
Heightened Def Con from 0.000337955 +++++++++++++++to 0.000337955
Heightened Def Con from 0.000337955 +++++++++++++++to 0.000337955
Heightened Def Con from 0.000337955 +++++++++++++++to 0.000337955
Heightened Def Con from 0.000337955 +++++++++++++++to 0.000337955
Heightened Def Con from 0.000337955 +++++++++++++++to 0.000337955
Heightened Def Con from 0.000337955 +++++++++++++++to 0.000337955
Heightened Def Con from 0.000337955 +++++++++++++++to 0.000337955
Heightened Def Con from 0.000337955 +++++++++++++++to 0.000337955
Heightened Def Con from 0.000337955 +++++++++++++++to 0.000337955
Heightened Def Con from 0.000337955 +++++++++++++++to 0.000337955
Heightened Def Con from 0.000337955 +++++++++++++++to 0.000337955
Heightened Def Con from 0.000337955 +++++++++++++++to 0.000337955
Heightened Def Con from 0.000337955 +++++++++++++++to 0.000337955
Heightened Def Con from 0.000337955 +++++++++++++++to 0.000337955
Heightened Def Con from 0.000337955 +++++++++++++++to 0.000337955
Heightened Def Con from 0.000337955 +++++++++++++++to 0.000337955
Heightened Def Con from 0.000337955 +++++++++++++++to 0.000337955
Heightened Def Con from 0.000337955 +++++++++++++++to 0.000337955
Heightened Def Con from 0.000337955 +++++++++++++++to 0.000337955
Heightened Def Con from 0.000337955 +++++++++++++++to 0.000337955
Heightened Def Con from 0.000337955 +++++++++++++++to 0.000337955
Heightened Def Con from 0.000337955 +++++++++++++++to 0.000337955
Heightened Def Con from 0.000337955 +++++++++++++++to 0.000337955
Heightened Def Con from 0.000337955 +++++++++++++++to 0.000337955
Heightened Def Con from 0.000337955 +++++++++++++++to 0.000337955
Heightened Def Con from 0.000337955 +++++++++++++++to 0.000337955
Heightened Def Con from 0.000337955 +++++++++++++++to 0.000337955
Heightened Def Con from 0.000337955 +++++++++++++++to 0.000337955
Heightened Def Con from 0.000337955 +++++++++++++++to 0.000337955
Heightened Def Con from 0.000337955 +++++++++++++++to 0.000337955
Heightened Def Con from 0.000337955 +++++++++++++++to 0.000337955
Heightened Def Con from 0.000337955 +++++++++++++++to 0.000337955
Heightened Def Con from 0.000337955 +++++++++++++++to 0.000337955
Heightened Def Con from 0.000337955 +++++++++++++++to 0.000337955
Heightened Def Con from 0.000337955 +++++++++++++++to 0.000337955
Heightened Def Con from 0.000337955 +++++++++++++++to 0.000337955
Heightened Def Con from 0.000337955 +++++++++++++++to 0.000337955
Heightened Def Con from 0.000337955 +++++++++++++++to 0.000337955
Heightened Def Con from 0.000337955 +++++++++++++++to 0.000337955
Heightened Def Con from 0.000337955 +++++++++++++++to 0.000337955
Heightened Def Con from 0.000337955 +++++++++++++++to 0.000337955
Heightened Def Con from 0.000337955 +++++++++++++++to 0.000337955
Heightened Def Con from 0.000337955 +++++++++++++++to 0.000337955
Heightened Def Con from 0.000337955 +++++++++++++++to 0.000337955
Heightened Def Con from 0.000337955 +++++++++++++++to 0.000337955
Heightened Def Con from 0.000337955 +++++++++++++++to 0.000337955
Heightened Def Con from 0.000337955 +++++++++++++++to 0.000337955
Heightened Def Con from 0.000337955 +++++++++++++++to 0.000337955
Heightened Def Con from 0.000337955 +++++++++++++++to 0.000337955
Heightened Def Con from 0.000337955 +++++++++++++++to 0.000337955
Heightened Def Con from 0.000337955 +++++++++++++++to 0.000337955
Heightened Def Con from 0.000337955 +++++++++++++++to 0.000337955
Heightened Def Con from 0.000337955 +++++++++++++++to 0.000337955
Heightened Def Con from 0.000337955 +++++++++++++++to 0.000337955
Heightened Def Con from 0.000337955 +++++++++++++++to 0.000337955
Heightened Def Con from 0.000337955 +++++++++++++++to 0.000337955
Heightened Def Con from 0.000337955 +++++++++++++++to 0.000337955
Heightened Def Con from 0.000337955 +++++++++++++++to 0.000337955
Heightened Def Con from 0.000337955 +++++++++++++++to 0.000337955
Heightened Def Con from 0.000337955 +++++++++++++++to 0.000337955
Heightened Def Con from 0.000337955 +++++++++++++++to 0.000337955
Heightened Def Con from 0.000337955 +++++++++++++++to 0.000337955
Heightened Def Con from 0.000337955 +++++++++++++++to 0.000337955
Heightened Def Con from 0.000337955 +++++++++++++++to 0.000337955
Heightened Def Con from 0.000337955 +++++++++++++++to 0.000337955
Heightened Def Con from 0.000337955 +++++++++++++++to 0.000337955
Heightened Def Con from 0.000337955 +++++++++++++++to 0.000337955
Heightened Def Con from 0.000337955 +++++++++++++++to 0.000337955
Heightened Def Con from 0.000337955 +++++++++++++++to 0.000337955
Heightened Def Con from 0.000337955 +++++++++++++++to 0.000337955
Heightened Def Con from 0.000337955 +++++++++++++++to 0.000337955
Heightened Def Con from 0.000337955 +++++++++++++++to 0.000337955
Heightened Def Con from 0.000337955 +++++++++++++++to 0.000337955
Heightened Def Con from 0.000337955 +++++++++++++++to 0.000337955
Heightened Def Con from 0.000337955 +++++++++++++++to 0.000337955
Heightened Def Con from 0.000337955 +++++++++++++++to 0.000337955
Heightened Def Con from 0.000337955 +++++++++++++++to 0.000337955
Heightened Def Con from 0.000337955 +++++++++++++++to 0.000337955
Heightened Def Con from 0.000337955 +++++++++++++++to 0.000337955
Heightened Def Con from 0.000337955 +++++++++++++++to 0.000337955
Heightened Def Con from 0.000337955 +++++++++++++++to 0.000337955
Heightened Def Con from 0.000337955 +++++++++++++++to 0.000337955
Heightened Def Con from 0.000337955 +++++++++++++++to 0.000337955
Heightened Def Con from 0.000337955 +++++++++++++++to 0.000337955
Heightened Def Con from 0.000337955 +++++++++++++++to 0.000337955
Heightened Def Con from 0.000337955 +++++++++++++++to 0.000337955
Heightened Def Con from 0.000337955 +++++++++++++++to 0.000337955
Heightened Def Con from 0.000337955 +++++++++++++++to 0.000337955
Heightened Def Con from 0.000337955 +++++++++++++++to 0.000337955
Heightened Def Con from 0.000337955 +++++++++++++++to 0.000337955
Heightened Def Con from 0.000337955 +++++++++++++++to 0.000337955
Heightened Def Con from 0.000337955 +++++++++++++++to 0.000337955
Heightened Def Con from 0.000337955 +++++++++++++++to 0.000337955
Heightened Def Con from 0.000337955 +++++++++++++++to 0.000337955
Heightened Def Con from 0.000337955 +++++++++++++++to 0.000337955
Heightened Def Con from 0.000337955 +++++++++++++++to 0.000337955
Heightened Def Con from 0.000337955 +++++++++++++++to 0.000337955
Heightened Def Con from 0.000337955 +++++++++++++++to 0.000337955
Heightened Def Con from 0.000337955 +++++++++++++++to 0.000337955
Heightened Def Con from 0.000337955 +++++++++++++++to 0.000337955
Heightened Def Con from 0.000337955 +++++++++++++++to 0.000337955
Heightened Def Con from 0.000337955 +++++++++++++++to 0.000337955
Heightened Def Con from 0.000337955 +++++++++++++++to 0.000337955
Heightened Def Con from 0.000337955 +++++++++++++++to 0.000337955
Heightened Def Con from 0.000337955 +++++++++++++++to 0.000337955
Heightened Def Con from 0.000337955 +++++++++++++++to 0.000337955
Heightened Def Con from 0.000337955 +++++++++++++++to 0.000337955
Heightened Def Con from 0.000337955 +++++++++++++++to 0.000337955
Heightened Def Con from 0.000337955 +++++++++++++++to 0.000337955
Heightened Def Con from 0.000337955 +++++++++++++++to 0.000337955
Heightened Def Con from 0.000337955 +++++++++++++++to 0.000337955
Heightened Def Con from 0.000337955 +++++++++++++++to 0.000337955
Heightened Def Con from 0.000337955 +++++++++++++++to 0.000337955
Heightened Def Con from 0.000337955 +++++++++++++++to 0.000337955
Heightened Def Con from 0.000337955 +++++++++++++++to 0.000337955
Heightened Def Con from 0.000337955 +++++++++++++++to 0.000337955
Heightened Def Con from 0.000337955 +++++++++++++++to 0.000337955
Heightened Def Con from 0.000337955 +++++++++++++++to 0.000337955
Heightened Def Con from 0.000337955 +++++++++++++++to 0.000337955
Heightened Def Con from 0.000337955 +++++++++++++++to 0.000337955
Heightened Def Con from 0.000337955 +++++++++++++++to 0.000337955
Heightened Def Con from 0.000337955 +++++++++++++++to 0.000337955
Heightened Def Con from 0.000337955 +++++++++++++++to 0.000337955
Heightened Def Con from 0.000337955 +++++++++++++++to 0.000337955
Heightened Def Con from 0.000337955 +++++++++++++++to 0.000337955
Heightened Def Con from 0.000337955 +++++++++++++++to 0.000337955
Heightened Def Con from 0.000337955 +++++++++++++++to 0.000337955
Heightened Def Con from 0.000337955 +++++++++++++++to 0.000337955
Heightened Def Con from 0.000337955 +++++++++++++++to 0.000337955
Heightened Def Con from 0.000337955 +++++++++++++++to 0.000337955
Heightened Def Con from 0.000337955 +++++++++++++++to 0.000337955
Heightened Def Con from 0.000337955 +++++++++++++++to 0.000337955
Heightened Def Con from 0.000337955 +++++++++++++++to 0.000337955
Heightened Def Con from 0.000337955 +++++++++++++++to 0.000337955
Heightened Def Con from 0.000337955 +++++++++++++++to 0.000337955
Heightened Def Con from 0.000337955 +++++++++++++++to 0.000337955
Heightened Def Con from 0.000337955 +++++++++++++++to 0.000337955
Heightened Def Con from 0.000337955 +++++++++++++++to 0.000337955
Heightened Def Con from 0.000337955 +++++++++++++++to 0.000337955
Heightened Def Con from 0.000337955 +++++++++++++++to 0.000337955
Heightened Def Con from 0.000337955 +++++++++++++++to 0.000337955
Heightened Def Con from 0.000337955 +++++++++++++++to 0.000337955
Heightened Def Con from 0.000337955 +++++++++++++++to 0.000337955
Heightened Def Con from 0.000337955 +++++++++++++++to 0.000337955
Heightened Def Con from 0.000337955 +++++++++++++++to 0.000337955
Heightened Def Con from 0.000337955 +++++++++++++++to 0.000337955
Heightened Def Con from 0.000337955 +++++++++++++++to 0.000337955
Heightened Def Con from 0.000337955 +++++++++++++++to 0.000337955
Heightened Def Con from 0.000337955 +++++++++++++++to 0.000337955
Heightened Def Con from 0.000337955 +++++++++++++++to 0.000337955
Heightened Def Con from 0.000337955 +++++++++++++++to 0.000337955
Heightened Def Con from 0.000337955 +++++++++++++++to 0.000337955
Heightened Def Con from 0.000337955 +++++++++++++++to 0.000337955
Heightened Def Con from 0.000337955 +++++++++++++++to 0.000337955
Heightened Def Con from 0.000337955 +++++++++++++++to 0.000337955
Heightened Def Con from 0.000337955 +++++++++++++++to 0.000337955
Heightened Def Con from 0.000337955 +++++++++++++++to 0.000337955
Heightened Def Con from 0.000337955 +++++++++++++++to 0.000337955
Heightened Def Con from 0.000337955 +++++++++++++++to 0.000337955
Heightened Def Con from 0.000337955 +++++++++++++++to 0.000337955
Heightened Def Con from 0.000337955 +++++++++++++++to 0.000337955
Heightened Def Con from 0.000337955 +++++++++++++++to 0.000337955
Heightened Def Con from 0.000337955 +++++++++++++++to 0.000337955
Heightened Def Con from 0.000337955 +++++++++++++++to 0.000337955
Heightened Def Con from 0.000337955 +++++++++++++++to 0.000337955
Heightened Def Con from 0.000337955 +++++++++++++++to 0.000337955
Heightened Def Con from 0.000337955 +++++++++++++++to 0.000337955
Heightened Def Con from 0.000337955 +++++++++++++++to 0.000337955
Heightened Def Con from 0.000337955 +++++++++++++++to 0.000337955
Heightened Def Con from 0.000337955 +++++++++++++++to 0.000337955
Heightened Def Con from 0.000337955 +++++++++++++++to 0.000337955
Heightened Def Con from 0.000337955 +++++++++++++++to 0.000337955
Heightened Def Con from 0.000337955 +++++++++++++++to 0.000337955
Heightened Def Con from 0.000337955 +++++++++++++++to 0.000337955
Heightened Def Con from 0.000337955 +++++++++++++++to 0.000337955
Heightened Def Con from 0.000337955 +++++++++++++++to 0.000337955
Heightened Def Con from 0.000337955 +++++++++++++++to 0.000337955
Heightened Def Con from 0.000337955 +++++++++++++++to 0.000337955
Heightened Def Con from 0.000337955 +++++++++++++++to 0.000337955
Heightened Def Con from 0.000337955 +++++++++++++++to 0.000337955
Heightened Def Con from 0.000337955 +++++++++++++++to 0.000337955
Heightened Def Con from 0.000337955 +++++++++++++++to 0.000337955
Heightened Def Con from 0.000337955 +++++++++++++++to 0.000337955
Heightened Def Con from 0.000337955 +++++++++++++++to 0.000337955
Heightened Def Con from 0.000337955 +++++++++++++++to 0.000337955
Heightened Def Con from 0.000337955 +++++++++++++++to 0.000337955
Heightened Def Con from 0.000337955 +++++++++++++++to 0.000337955
Heightened Def Con from 0.000337955 +++++++++++++++to 0.000337955
Heightened Def Con from 0.000337955 +++++++++++++++to 0.000337955
Heightened Def Con from 0.000337955 +++++++++++++++to 0.000337955
Heightened Def Con from 0.000337955 +++++++++++++++to 0.000337955
Heightened Def Con from 0.000337955 +++++++++++++++to 0.000337955
Heightened Def Con from 0.000337955 +++++++++++++++to 0.000337955
Heightened Def Con from 0.000337955 +++++++++++++++to 0.000337955
Heightened Def Con from 0.000337955 +++++++++++++++to 0.000337955
Heightened Def Con from 0.000337955 +++++++++++++++to 0.000337955
Heightened Def Con from 0.000337955 +++++++++++++++to 0.000337955
Heightened Def Con from 0.000337955 +++++++++++++++to 0.000337955
Heightened Def Con from 0.000337955 +++++++++++++++to 0.000337955
Heightened Def Con from 0.000337955 +++++++++++++++to 0.000337955
Heightened Def Con from 0.000337955 +++++++++++++++to 0.000337955
Heightened Def Con from 0.000337955 +++++++++++++++to 0.000337955
Heightened Def Con from 0.000337955 +++++++++++++++to 0.000337955
Heightened Def Con from 0.000337955 +++++++++++++++to 0.000337955
Heightened Def Con from 0.000337955 +++++++++++++++to 0.000337955
Heightened Def Con from 0.000337955 +++++++++++++++to 0.000337955
Heightened Def Con from 0.000337955 +++++++++++++++to 0.000337955
Heightened Def Con from 0.000337955 +++++++++++++++to 0.000337955
Heightened Def Con from 0.000337955 +++++++++++++++to 0.000337955
Heightened Def Con from 0.000337955 +++++++++++++++to 0.000337955
Heightened Def Con from 0.000337955 +++++++++++++++to 0.000337955
Heightened Def Con from 0.000337955 +++++++++++++++to 0.000337955
Heightened Def Con from 0.000337955 +++++++++++++++to 0.000337955
Heightened Def Con from 0.000337955 +++++++++++++++to 0.000337955
Heightened Def Con from 0.000337955 +++++++++++++++to 0.000337955
Heightened Def Con from 0.000337955 +++++++++++++++to 0.000337955
Heightened Def Con from 0.000337955 +++++++++++++++to 0.000337955
Heightened Def Con from 0.000337955 +++++++++++++++to 0.000337955
Heightened Def Con from 0.000337955 +++++++++++++++to 0.000337955
Heightened Def Con from 0.000337955 +++++++++++++++to 0.000337955
Heightened Def Con from 0.000337955 +++++++++++++++to 0.000337955
Heightened Def Con from 0.000337955 +++++++++++++++to 0.000337955
Heightened Def Con from 0.000337955 +++++++++++++++to 0.000337955
Heightened Def Con from 0.000337955 +++++++++++++++to 0.000337955
Heightened Def Con from 0.000337955 +++++++++++++++to 0.000337955
Heightened Def Con from 0.000337955 +++++++++++++++to 0.000337955
Heightened Def Con from 0.000337955 +++++++++++++++to 0.000337955
Heightened Def Con from 0.000337955 +++++++++++++++to 0.000337955
Heightened Def Con from 0.000337955 +++++++++++++++to 0.000337955
Heightened Def Con from 0.000337955 +++++++++++++++to 0.000337955
Heightened Def Con from 0.000337955 +++++++++++++++to 0.000337955
Heightened Def Con from 0.000337955 +++++++++++++++to 0.000337955
Heightened Def Con from 0.000337955 +++++++++++++++to 0.000337955
Heightened Def Con from 0.000337955 +++++++++++++++to 0.000337955
Heightened Def Con from 0.000337955 +++++++++++++++to 0.000337955
Heightened Def Con from 0.000337955 +++++++++++++++to 0.000337955
Heightened Def Con from 0.000337955 +++++++++++++++to 0.000337955
Heightened Def Con from 0.000337955 +++++++++++++++to 0.000337955
Heightened Def Con from 0.000337955 +++++++++++++++to 0.000337955
Heightened Def Con from 0.000337955 +++++++++++++++to 0.000337955
Heightened Def Con from 0.000337955 +++++++++++++++to 0.000337955
Heightened Def Con from 0.000337955 +++++++++++++++to 0.000337955
Heightened Def Con from 0.000337955 +++++++++++++++to 0.000337955
Heightened Def Con from 0.000337955 +++++++++++++++to 0.000337955
Heightened Def Con from 0.000337955 +++++++++++++++to 0.000337955
Heightened Def Con from 0.000337955 +++++++++++++++to 0.000337955
Heightened Def Con from 0.000337955 +++++++++++++++to 0.000337955
Heightened Def Con from 0.000337955 +++++++++++++++to 0.000337955
Heightened Def Con from 0.000337955 +++++++++++++++to 0.000337955
Heightened Def Con from 0.000337955 +++++++++++++++to 0.000337955
Heightened Def Con from 0.000337955 +++++++++++++++to 0.000337955
Heightened Def Con from 0.000337955 +++++++++++++++to 0.000337955
Heightened Def Con from 0.000337955 +++++++++++++++to 0.000337955
Heightened Def Con from 0.000337955 +++++++++++++++to 0.000337955
Heightened Def Con from 0.000337955 +++++++++++++++to 0.000337955
Heightened Def Con from 0.000337955 +++++++++++++++to 0.000337955
Heightened Def Con from 0.000337955 +++++++++++++++to 0.000337955
Heightened Def Con from 0.000337955 +++++++++++++++to 0.000337955
Heightened Def Con from 0.000337955 +++++++++++++++to 0.000337955
Heightened Def Con from 0.000337955 +++++++++++++++to 0.000337955
Heightened Def Con from 0.000337955 +++++++++++++++to 0.000337955
Heightened Def Con from 0.000337955 +++++++++++++++to 0.000337955
Heightened Def Con from 0.000337955 +++++++++++++++to 0.000337955
Heightened Def Con from 0.000337955 +++++++++++++++to 0.000337955
Heightened Def Con from 0.000337955 +++++++++++++++to 0.000337955
Heightened Def Con from 0.000337955 +++++++++++++++to 0.000337955
Heightened Def Con from 0.000337955 +++++++++++++++to 0.000337955
Heightened Def Con from 0.000337955 +++++++++++++++to 0.000337955
Heightened Def Con from 0.000337955 +++++++++++++++to 0.000337955
Heightened Def Con from 0.000337955 +++++++++++++++to 0.000337955
Heightened Def Con from 0.000337955 +++++++++++++++to 0.000337955
Heightened Def Con from 0.000337955 +++++++++++++++to 0.000337955
Heightened Def Con from 0.000337955 +++++++++++++++to 0.000337955
Heightened Def Con from 0.000337955 +++++++++++++++to 0.000337955
Heightened Def Con from 0.000337955 +++++++++++++++to 0.000337955
Heightened Def Con from 0.000337955 +++++++++++++++to 0.000337955
Heightened Def Con from 0.000337955 +++++++++++++++to 0.000337955
Heightened Def Con from 0.000337955 +++++++++++++++to 0.000337955
Heightened Def Con from 0.000337955 +++++++++++++++to 0.000337955
Heightened Def Con from 0.000337955 +++++++++++++++to 0.000337955
Heightened Def Con from 0.000337955 +++++++++++++++to 0.000337955
Heightened Def Con from 0.000337955 +++++++++++++++to 0.000337955
Heightened Def Con from 0.000337955 +++++++++++++++to 0.000337955
Heightened Def Con from 0.000337955 +++++++++++++++to 0.000337955
Heightened Def Con from 0.000337955 +++++++++++++++to 0.000337955
Heightened Def Con from 0.000337955 +++++++++++++++to 0.000337955
Heightened Def Con from 0.000337955 +++++++++++++++to 0.000337955
Heightened Def Con from 0.000337955 +++++++++++++++to 0.000337955
Heightened Def Con from 0.000337955 +++++++++++++++to 0.000337955
Heightened Def Con from 0.000337955 +++++++++++++++to 0.000337955
Heightened Def Con from 0.000337955 +++++++++++++++to 0.000337955
Heightened Def Con from 0.000337955 +++++++++++++++to 0.000337955
Heightened Def Con from 0.000337955 +++++++++++++++to 0.000337955
Heightened Def Con from 0.000337955 +++++++++++++++to 0.000337955
Heightened Def Con from 0.000337955 +++++++++++++++to 0.000337955
Heightened Def Con from 0.000337955 +++++++++++++++to 0.000337955
Heightened Def Con from 0.000337955 +++++++++++++++to 0.000337955
Heightened Def Con from 0.000337955 +++++++++++++++to 0.000337955
Heightened Def Con from 0.000337955 +++++++++++++++to 0.000337955
Heightened Def Con from 0.000337955 +++++++++++++++to 0.000337955
Heightened Def Con from 0.000337955 +++++++++++++++to 0.000337955
Heightened Def Con from 0.000337955 +++++++++++++++to 0.000337955
Heightened Def Con from 0.000337955 +++++++++++++++to 0.000337955
Heightened Def Con from 0.000337955 +++++++++++++++to 0.000337955
Heightened Def Con from 0.000337955 +++++++++++++++to 0.000337955
Heightened Def Con from 0.000337955 +++++++++++++++to 0.000337955
Heightened Def Con from 0.000337955 +++++++++++++++to 0.000337955
Heightened Def Con from 0.000337955 +++++++++++++++to 0.000337955
Heightened Def Con from 0.000337955 +++++++++++++++to 0.000337955
Heightened Def Con from 0.000337955 +++++++++++++++to 0.000337955
Heightened Def Con from 0.000337955 +++++++++++++++to 0.000337955
Heightened Def Con from 0.000337955 +++++++++++++++to 0.000337955
Heightened Def Con from 0.000337955 +++++++++++++++to 0.000337955
Heightened Def Con from 0.000337955 +++++++++++++++to 0.000337955
Heightened Def Con from 0.000337955 +++++++++++++++to 0.000337955
Heightened Def Con from 0.000337955 +++++++++++++++to 0.000337955
Heightened Def Con from 0.000337955 +++++++++++++++to 0.000337955
Heightened Def Con from 0.000337955 +++++++++++++++to 0.000337955
Heightened Def Con from 0.000337955 +++++++++++++++to 0.000337955
Heightened Def Con from 0.000337955 +++++++++++++++to 0.000337955
Heightened Def Con from 0.000337955 +++++++++++++++to 0.000337955
Heightened Def Con from 0.000337955 +++++++++++++++to 0.000337955
Heightened Def Con from 0.000337955 +++++++++++++++to 0.000337955
Heightened Def Con from 0.000337955 +++++++++++++++to 0.000337955
Heightened Def Con from 0.000337955 +++++++++++++++to 0.000337955
Heightened Def Con from 0.000337955 +++++++++++++++to 0.000337955
Heightened Def Con from 0.000337955 +++++++++++++++to 0.000337955
Heightened Def Con from 0.000337955 +++++++++++++++to 0.000337955
Heightened Def Con from 0.000337955 +++++++++++++++to 0.000337955
Heightened Def Con from 0.000337955 +++++++++++++++to 0.000337955
Heightened Def Con from 0.000337955 +++++++++++++++to 0.000337955
Heightened Def Con from 0.000337955 +++++++++++++++to 0.000337955
Heightened Def Con from 0.000337955 +++++++++++++++to 0.000337955
Heightened Def Con from 0.000337955 +++++++++++++++to 0.000337955
Heightened Def Con from 0.000337955 +++++++++++++++to 0.000337955
Heightened Def Con from 0.000337955 +++++++++++++++to 0.000337955
Heightened Def Con from 0.000337955 +++++++++++++++to 0.000337955
Heightened Def Con from 0.000337955 +++++++++++++++to 0.000337955
Heightened Def Con from 0.000337955 +++++++++++++++to 0.000337955
Heightened Def Con from 0.000337955 +++++++++++++++to 0.000337955
Heightened Def Con from 0.000337955 +++++++++++++++to 0.000337955
Heightened Def Con from 0.000337955 +++++++++++++++to 0.000337955
Heightened Def Con from 0.000337955 +++++++++++++++to 0.000337955
Heightened Def Con from 0.000337955 +++++++++++++++to 0.000337955
Heightened Def Con from 0.000337955 +++++++++++++++to 0.000337955
Heightened Def Con from 0.000337955 +++++++++++++++to 0.000337955
Heightened Def Con from 0.000337955 +++++++++++++++to 0.000337955
Heightened Def Con from 0.000337955 +++++++++++++++to 0.000337955
Heightened Def Con from 0.000337955 +++++++++++++++to 0.000337955
Heightened Def Con from 0.000337955 +++++++++++++++to 0.000337955
Heightened Def Con from 0.000337955 +++++++++++++++to 0.000337955
Heightened Def Con from 0.000337955 +++++++++++++++to 0.000337955
Heightened Def Con from 0.000337955 +++++++++++++++to 0.000337955
Heightened Def Con from 0.000337955 +++++++++++++++to 0.000337955
Heightened Def Con from 0.000337955 +++++++++++++++to 0.000337955
Heightened Def Con from 0.000337955 +++++++++++++++to 0.000337955
Heightened Def Con from 0.000337955 +++++++++++++++to 0.000337955
Heightened Def Con from 0.000337955 +++++++++++++++to 0.000337955
Heightened Def Con from 0.000337955 +++++++++++++++to 0.000337955
Heightened Def Con from 0.000337955 +++++++++++++++to 0.000337955
Heightened Def Con from 0.000337955 +++++++++++++++to 0.000337955
Heightened Def Con from 0.000337955 +++++++++++++++to 0.000337955
Heightened Def Con from 0.000337955 +++++++++++++++to 0.000337955
Heightened Def Con from 0.000337955 +++++++++++++++to 0.000337955
Heightened Def Con from 0.000337955 +++++++++++++++to 0.000337955
Heightened Def Con from 0.000337955 +++++++++++++++to 0.000337955
Heightened Def Con from 0.000337955 +++++++++++++++to 0.000337955
Heightened Def Con from 0.000337955 +++++++++++++++to 0.000337955
Heightened Def Con from 0.000337955 +++++++++++++++to 0.000337955
Heightened Def Con from 0.000337955 +++++++++++++++to 0.000337955
Heightened Def Con from 0.000337955 +++++++++++++++to 0.000337955
Heightened Def Con from 0.000337955 +++++++++++++++to 0.000337955
Heightened Def Con from 0.000337955 +++++++++++++++to 0.000337955
Heightened Def Con from 0.000337955 +++++++++++++++to 0.000337955
Heightened Def Con from 0.000337955 +++++++++++++++to 0.000337955
Heightened Def Con from 0.000337955 +++++++++++++++to 0.000337955
Heightened Def Con from 0.000337955 +++++++++++++++to 0.000337955
Heightened Def Con from 0.000337955 +++++++++++++++to 0.000337955
Heightened Def Con from 0.000337955 +++++++++++++++to 0.000337955
Heightened Def Con from 0.000337955 +++++++++++++++to 0.000337955
Heightened Def Con from 0.000337955 +++++++++++++++to 0.000337955
Heightened Def Con from 0.000337955 +++++++++++++++to 0.000337955
Heightened Def Con from 0.000337955 +++++++++++++++to 0.000337955
Heightened Def Con from 0.000337955 +++++++++++++++to 0.000337955
Heightened Def Con from 0.000337955 +++++++++++++++to 0.000337955
Heightened Def Con from 0.000337955 +++++++++++++++to 0.000337955
Heightened Def Con from 0.000337955 +++++++++++++++to 0.000337955
Heightened Def Con from 0.000337955 +++++++++++++++to 0.000337955
Heightened Def Con from 0.000337955 +++++++++++++++to 0.000337955
Heightened Def Con from 0.000337955 +++++++++++++++to 0.000337955
Heightened Def Con from 0.000337955 +++++++++++++++to 0.000337955
Heightened Def Con from 0.000337955 +++++++++++++++to 0.000337955
Heightened Def Con from 0.000337955 +++++++++++++++to 0.000337955
Heightened Def Con from 0.000337955 +++++++++++++++to 0.000337955
Heightened Def Con from 0.000337955 +++++++++++++++to 0.000337955
Heightened Def Con from 0.000337955 +++++++++++++++to 0.000337955
Heightened Def Con from 0.000337955 +++++++++++++++to 0.000337955
Heightened Def Con from 0.000337955 +++++++++++++++to 0.000337955
Heightened Def Con from 0.000337955 +++++++++++++++to 0.000337955
Heightened Def Con from 0.000337955 +++++++++++++++to 0.000337955
Heightened Def Con from 0.000337955 +++++++++++++++to 0.000337955
Heightened Def Con from 0.000337955 +++++++++++++++to 0.000337955
Heightened Def Con from 0.000337955 +++++++++++++++to 0.000337955
Heightened Def Con from 0.000337955 +++++++++++++++to 0.000337955
Heightened Def Con from 0.000337955 +++++++++++++++to 0.000337955
Heightened Def Con from 0.000337955 +++++++++++++++to 0.000337955
Heightened Def Con from 0.000337955 +++++++++++++++to 0.000337955
Heightened Def Con from 0.000337955 +++++++++++++++to 0.000337955
Heightened Def Con from 0.000337955 +++++++++++++++to 0.000337955
Heightened Def Con from 0.000337955 +++++++++++++++to 0.000337955
Heightened Def Con from 0.000337955 +++++++++++++++to 0.000337955
Heightened Def Con from 0.000337955 +++++++++++++++to 0.000337955
Heightened Def Con from 0.000337955 +++++++++++++++to 0.000337955
Heightened Def Con from 0.000337955 +++++++++++++++to 0.000337955
Heightened Def Con from 0.000337955 +++++++++++++++to 0.000337955
Heightened Def Con from 0.000337955 +++++++++++++++to 0.000337955
Heightened Def Con from 0.000337955 +++++++++++++++to 0.000337955
Heightened Def Con from 0.000337955 +++++++++++++++to 0.000337955
Heightened Def Con from 0.000337955 +++++++++++++++to 0.000337955
Heightened Def Con from 0.000337955 +++++++++++++++to 0.000337955
Heightened Def Con from 0.000337955 +++++++++++++++to 0.000337955
Heightened Def Con from 0.000337955 +++++++++++++++to 0.000337955
Heightened Def Con from 0.000337955 +++++++++++++++to 0.000337955
Heightened Def Con from 0.000337955 +++++++++++++++to 0.000337955
Heightened Def Con from 0.000337955 +++++++++++++++to 0.000337955
Heightened Def Con from 0.000337955 +++++++++++++++to 0.000337955
Heightened Def Con from 0.000337955 +++++++++++++++to 0.000337955
Heightened Def Con from 0.000337955 +++++++++++++++to 0.000337955
Heightened Def Con from 0.000337955 +++++++++++++++to 0.000337955
Heightened Def Con from 0.000337955 +++++++++++++++to 0.000337955
Heightened Def Con from 0.000337955 +++++++++++++++to 0.000337955
Heightened Def Con from 0.000337955 +++++++++++++++to 0.000337955
Heightened Def Con from 0.000337955 +++++++++++++++to 0.000337955
Heightened Def Con from 0.000337955 +++++++++++++++to 0.000337955
Heightened Def Con from 0.000337955 +++++++++++++++to 0.000337955
Heightened Def Con from 0.000337955 +++++++++++++++to 0.000337955
Heightened Def Con from 0.000337955 +++++++++++++++to 0.000337955
Heightened Def Con from 0.000337955 +++++++++++++++to 0.000337955
Heightened Def Con from 0.000337955 +++++++++++++++to 0.000337955
Heightened Def Con from 0.000337955 +++++++++++++++to 0.000337955
Heightened Def Con from 0.000337955 +++++++++++++++to 0.000337955
Heightened Def Con from 0.000337955 +++++++++++++++to 0.000337955
Heightened Def Con from 0.000337955 +++++++++++++++to 0.000337955
Heightened Def Con from 0.000337955 +++++++++++++++to 0.000337955
Heightened Def Con from 0.000337955 +++++++++++++++to 0.000337955
Heightened Def Con from 0.000337955 +++++++++++++++to 0.000337955
Heightened Def Con from 0.000337955 +++++++++++++++to 0.000337955
Heightened Def Con from 0.000337955 +++++++++++++++to 0.000337955
Heightened Def Con from 0.000337955 +++++++++++++++to 0.000337955
Heightened Def Con from 0.000337955 +++++++++++++++to 0.000337955
Heightened Def Con from 0.000337955 +++++++++++++++to 0.000337955
Heightened Def Con from 0.000337955 +++++++++++++++to 0.000337955
Heightened Def Con from 0.000337955 +++++++++++++++to 0.000337955
Heightened Def Con from 0.000337955 +++++++++++++++to 0.000337955
Heightened Def Con from 0.000337955 +++++++++++++++to 0.000337955
Heightened Def Con from 0.000337955 +++++++++++++++to 0.000337955
Heightened Def Con from 0.000337955 +++++++++++++++to 0.000337955
Heightened Def Con from 0.000337955 +++++++++++++++to 0.000337955
Heightened Def Con from 0.000337955 +++++++++++++++to 0.000337955
Heightened Def Con from 0.000337955 +++++++++++++++to 0.000337955
Heightened Def Con from 0.000337955 +++++++++++++++to 0.000337955
Heightened Def Con from 0.000337955 +++++++++++++++to 0.000337955
Heightened Def Con from 0.000337955 +++++++++++++++to 0.000337955
Heightened Def Con from 0.000337955 +++++++++++++++to 0.000337955
Heightened Def Con from 0.000337955 +++++++++++++++to 0.000337955
Heightened Def Con from 0.000337955 +++++++++++++++to 0.000337955
Heightened Def Con from 0.000337955 +++++++++++++++to 0.000337955
Heightened Def Con from 0.000337955 +++++++++++++++to 0.000337955
Heightened Def Con from 0.000337955 +++++++++++++++to 0.000337955
Heightened Def Con from 0.000337955 +++++++++++++++to 0.000337955
Heightened Def Con from 0.000337955 +++++++++++++++to 0.000337955
Heightened Def Con from 0.000337955 +++++++++++++++to 0.000337955
Heightened Def Con from 0.000337955 +++++++++++++++to 0.000337955
Heightened Def Con from 0.000337955 +++++++++++++++to 0.000337955
Heightened Def Con from 0.000337955 +++++++++++++++to 0.000337955
Heightened Def Con from 0.000337955 +++++++++++++++to 0.000337955
Heightened Def Con from 0.000337955 +++++++++++++++to 0.000337955
Heightened Def Con from 0.000337955 +++++++++++++++to 0.000337955
Heightened Def Con from 0.000337955 +++++++++++++++to 0.000337955
Heightened Def Con from 0.000337955 +++++++++++++++to 0.000337955
Heightened Def Con from 0.000337955 +++++++++++++++to 0.000337955
Heightened Def Con from 0.000337955 +++++++++++++++to 0.000337955
Heightened Def Con from 0.000337955 +++++++++++++++to 0.000337955
Heightened Def Con from 0.000337955 +++++++++++++++to 0.000337955
Heightened Def Con from 0.000337955 +++++++++++++++to 0.000337955
Heightened Def Con from 0.000337955 +++++++++++++++to 0.000337955
Heightened Def Con from 0.000337955 +++++++++++++++to 0.000337955
Heightened Def Con from 0.000337955 +++++++++++++++to 0.000337955
Heightened Def Con from 0.000337955 +++++++++++++++to 0.000337955
Heightened Def Con from 0.000337955 +++++++++++++++to 0.000337955
Heightened Def Con from 0.000337955 +++++++++++++++to 0.000337955
Heightened Def Con from 0.000337955 +++++++++++++++to 0.000337955
Heightened Def Con from 0.000337955 +++++++++++++++to 0.000337955
Heightened Def Con from 0.000337955 +++++++++++++++to 0.000337955
Heightened Def Con from 0.000337955 +++++++++++++++to 0.000337955
Heightened Def Con from 0.000337955 +++++++++++++++to 0.000337955
Heightened Def Con from 0.000337955 +++++++++++++++to 0.000337955
Heightened Def Con from 0.000337955 +++++++++++++++to 0.000337955
Heightened Def Con from 0.000337955 +++++++++++++++to 0.000337955
Heightened Def Con from 0.000337955 +++++++++++++++to 0.000337955
Heightened Def Con from 0.000337955 +++++++++++++++to 0.000337955
Heightened Def Con from 0.000337955 +++++++++++++++to 0.000337955
Heightened Def Con from 0.000337955 +++++++++++++++to 0.000337955
Heightened Def Con from 0.000337955 +++++++++++++++to 0.000337955
Heightened Def Con from 0.000337955 +++++++++++++++to 0.000337955
Heightened Def Con from 0.000337955 +++++++++++++++to 0.000337955
Heightened Def Con from 0.000337955 +++++++++++++++to 0.000337955
Heightened Def Con from 0.000337955 +++++++++++++++to 0.000337955
Heightened Def Con from 0.000337955 +++++++++++++++to 0.000337955
Heightened Def Con from 0.000337955 +++++++++++++++to 0.000337955
Heightened Def Con from 0.000337955 +++++++++++++++to 0.000337955
Heightened Def Con from 0.000337955 +++++++++++++++to 0.000337955
Heightened Def Con from 0.000337955 +++++++++++++++to 0.000337955
Heightened Def Con from 0.000337955 +++++++++++++++to 0.000337955
Heightened Def Con from 0.000337955 +++++++++++++++to 0.000337955
Heightened Def Con from 0.000337955 +++++++++++++++to 0.000337955
Heightened Def Con from 0.000337955 +++++++++++++++to 0.000337955
Heightened Def Con from 0.000337955 +++++++++++++++to 0.000337955
Heightened Def Con from 0.000337955 +++++++++++++++to 0.000337955
Heightened Def Con from 0.000337955 +++++++++++++++to 0.000337955
Heightened Def Con from 0.000337955 +++++++++++++++to 0.000337955
Heightened Def Con from 0.000337955 +++++++++++++++to 0.000337955
Heightened Def Con from 0.000337955 +++++++++++++++to 0.000337955
Heightened Def Con from 0.000337955 +++++++++++++++to 0.000337955
Heightened Def Con from 0.000337955 +++++++++++++++to 0.000337955
Heightened Def Con from 0.000337955 +++++++++++++++to 0.000337955
Heightened Def Con from 0.000337955 +++++++++++++++to 0.000337955
Heightened Def Con from 0.000337955 +++++++++++++++to 0.000337955
Heightened Def Con from 0.000337955 +++++++++++++++to 0.000337955
Heightened Def Con from 0.000337955 +++++++++++++++to 0.000337955
Heightened Def Con from 0.000337955 +++++++++++++++to 0.000337955
Heightened Def Con from 0.000337955 +++++++++++++++to 0.000337955
Heightened Def Con from 0.000337955 +++++++++++++++to 0.000337955
Heightened Def Con from 0.000337955 +++++++++++++++to 0.000337955
Heightened Def Con from 0.000337955 +++++++++++++++to 0.000337955
Heightened Def Con from 0.000337955 +++++++++++++++to 0.000337955
Heightened Def Con from 0.000337955 +++++++++++++++to 0.000337955
Heightened Def Con from 0.000337955 +++++++++++++++to 0.000337955
Heightened Def Con from 0.000337955 +++++++++++++++to 0.000337955
Heightened Def Con from 0.000337955 +++++++++++++++to 0.000337955
Heightened Def Con from 0.000337955 +++++++++++++++to 0.000337955
Heightened Def Con from 0.000337955 +++++++++++++++to 0.000337955
Heightened Def Con from 0.000337955 +++++++++++++++to 0.000337955
Heightened Def Con from 0.000337955 +++++++++++++++to 0.000337955
Heightened Def Con from 0.000337955 +++++++++++++++to 0.000337955
Heightened Def Con from 0.000337955 +++++++++++++++to 0.000337955
Heightened Def Con from 0.000337955 +++++++++++++++to 0.000337955
Heightened Def Con from 0.000337955 +++++++++++++++to 0.000337955
Heightened Def Con from 0.000337955 +++++++++++++++to 0.000337955
Heightened Def Con from 0.000337955 +++++++++++++++to 0.000337955
Heightened Def Con from 0.000337955 +++++++++++++++to 0.000337955
Heightened Def Con from 0.000337955 +++++++++++++++to 0.000337955
Heightened Def Con from 0.000337955 +++++++++++++++to 0.000337955
Heightened Def Con from 0.000337955 +++++++++++++++to 0.000337955
Heightened Def Con from 0.000337955 +++++++++++++++to 0.000337955
Heightened Def Con from 0.000337955 +++++++++++++++to 0.000337955
Heightened Def Con from 0.000337955 +++++++++++++++to 0.000337955
Heightened Def Con from 0.000337955 +++++++++++++++to 0.000337955
Heightened Def Con from 0.000337955 +++++++++++++++to 0.000337955
Heightened Def Con from 0.000337955 +++++++++++++++to 0.000337955
Heightened Def Con from 0.000337955 +++++++++++++++to 0.000337955
Heightened Def Con from 0.000337955 +++++++++++++++to 0.000337955
Heightened Def Con from 0.000337955 +++++++++++++++to 0.000337955
Heightened Def Con from 0.000337955 +++++++++++++++to 0.000337955
Heightened Def Con from 0.000337955 +++++++++++++++to 0.000337955
Heightened Def Con from 0.000337955 +++++++++++++++to 0.000337955
Heightened Def Con from 0.000337955 +++++++++++++++to 0.000337955
Heightened Def Con from 0.000337955 +++++++++++++++to 0.000337955
Heightened Def Con from 0.000337955 +++++++++++++++to 0.000337955
Heightened Def Con from 0.000337955 +++++++++++++++to 0.000337955
Heightened Def Con from 0.000337955 +++++++++++++++to 0.000337955
Heightened Def Con from 0.000337955 +++++++++++++++to 0.000337955
Heightened Def Con from 0.000337955 +++++++++++++++to 0.000337955
Heightened Def Con from 0.000337955 +++++++++++++++to 0.000337955
Heightened Def Con from 0.000337955 +++++++++++++++to 0.000337955
Heightened Def Con from 0.000337955 +++++++++++++++to 0.000337955
Heightened Def Con from 0.000337955 +++++++++++++++to 0.000337955
Heightened Def Con from 0.000337955 +++++++++++++++to 0.000337955
Heightened Def Con from 0.000337955 +++++++++++++++to 0.000337955
Heightened Def Con from 0.000337955 +++++++++++++++to 0.000337955
Heightened Def Con from 0.000337955 +++++++++++++++to 0.000337955
Heightened Def Con from 0.000337955 +++++++++++++++to 0.000337955
Heightened Def Con from 0.000337955 +++++++++++++++to 0.000337955
Heightened Def Con from 0.000337955 +++++++++++++++to 0.000337955
Heightened Def Con from 0.000337955 +++++++++++++++to 0.000337955
Heightened Def Con from 0.000337955 +++++++++++++++to 0.000337955
Heightened Def Con from 0.000337955 +++++++++++++++to 0.000337955
Heightened Def Con from 0.000337955 +++++++++++++++to 0.000337955
Heightened Def Con from 0.000337955 +++++++++++++++to 0.000337955
Heightened Def Con from 0.000337955 +++++++++++++++to 0.000337955
Heightened Def Con from 0.000337955 +++++++++++++++to 0.000337955
Heightened Def Con from 0.000337955 +++++++++++++++to 0.000337955
Heightened Def Con from 0.000337955 +++++++++++++++to 0.000337955
Heightened Def Con from 0.000337955 +++++++++++++++to 0.000337955
Heightened Def Con from 0.000337955 +++++++++++++++to 0.000337955
Heightened Def Con from 0.000337955 +++++++++++++++to 0.000337955
Heightened Def Con from 0.000337955 +++++++++++++++to 0.000337955
Heightened Def Con from 0.000337955 +++++++++++++++to 0.000337955
Heightened Def Con from 0.000337955 +++++++++++++++to 0.000337955
Heightened Def Con from 0.000337955 +++++++++++++++to 0.000337955
Heightened Def Con from 0.000337955 +++++++++++++++to 0.000337955
Heightened Def Con from 0.000337955 +++++++++++++++to 0.000337955
Heightened Def Con from 0.000337955 +++++++++++++++to 0.000337955
Heightened Def Con from 0.000337955 +++++++++++++++to 0.000337955
Heightened Def Con from 0.000337955 +++++++++++++++to 0.000337955
Heightened Def Con from 0.000337955 +++++++++++++++to 0.000337955
Heightened Def Con from 0.000337955 +++++++++++++++to 0.000337955
Heightened Def Con from 0.000337955 +++++++++++++++to 0.000337955
Heightened Def Con from 0.000337955 +++++++++++++++to 0.000337955
Heightened Def Con from 0.000337955 +++++++++++++++to 0.000337955
Heightened Def Con from 0.000337955 +++++++++++++++to 0.000337955
Heightened Def Con from 0.000337955 +++++++++++++++to 0.000337955
Heightened Def Con from 0.000337955 +++++++++++++++to 0.000337955
Heightened Def Con from 0.000337955 +++++++++++++++to 0.000337955
Heightened Def Con from 0.000337955 +++++++++++++++to 0.000337955
Heightened Def Con from 0.000337955 +++++++++++++++to 0.000337955
Heightened Def Con from 0.000337955 +++++++++++++++to 0.000337955
Heightened Def Con from 0.000337955 +++++++++++++++to 0.000337955
Heightened Def Con from 0.000337955 +++++++++++++++to 0.000337955
Heightened Def Con from 0.000337955 +++++++++++++++to 0.000337955
Heightened Def Con from 0.000337955 +++++++++++++++to 0.000337955
Heightened Def Con from 0.000337955 +++++++++++++++to 0.000337955
Heightened Def Con from 0.000337955 +++++++++++++++to 0.000337955
Heightened Def Con from 0.000337955 +++++++++++++++to 0.000337955
Heightened Def Con from 0.000337955 +++++++++++++++to 0.000337955
Heightened Def Con from 0.000337955 +++++++++++++++to 0.000337955
Heightened Def Con from 0.000337955 +++++++++++++++to 0.000337955
Heightened Def Con from 0.000337955 +++++++++++++++to 0.000337955
Heightened Def Con from 0.000337955 +++++++++++++++to 0.000337955
Heightened Def Con from 0.000337955 +++++++++++++++to 0.000337955
Heightened Def Con from 0.000337955 +++++++++++++++to 0.000337955
Heightened Def Con from 0.000337955 +++++++++++++++to 0.000337955
Heightened Def Con from 0.000337955 +++++++++++++++to 0.000337955
Heightened Def Con from 0.000337955 +++++++++++++++to 0.000337955
Heightened Def Con from 0.000337955 +++++++++++++++to 0.000337955
Heightened Def Con from 0.000337955 +++++++++++++++to 0.000337955
Heightened Def Con from 0.000337955 +++++++++++++++to 0.000337955
Heightened Def Con from 0.000337955 +++++++++++++++to 0.000337955
Heightened Def Con from 0.000337955 +++++++++++++++to 0.000337955
Heightened Def Con from 0.000337955 +++++++++++++++to 0.000337955
Heightened Def Con from 0.000337955 +++++++++++++++to 0.000337955
Heightened Def Con from 0.000337955 +++++++++++++++to 0.000337955
Heightened Def Con from 0.000337955 +++++++++++++++to 0.000337955
Heightened Def Con from 0.000337955 +++++++++++++++to 0.000337955
Heightened Def Con from 0.000337955 +++++++++++++++to 0.000337955
Heightened Def Con from 0.000337955 +++++++++++++++to 0.000337955
Heightened Def Con from 0.000337955 +++++++++++++++to 0.000337955
Heightened Def Con from 0.000337955 +++++++++++++++to 0.000337955
Heightened Def Con from 0.000337955 +++++++++++++++to 0.000337955
Heightened Def Con from 0.000337955 +++++++++++++++to 0.000337955
Heightened Def Con from 0.000337955 +++++++++++++++to 0.000337955
Heightened Def Con from 0.000337955 +++++++++++++++to 0.000337955
Heightened Def Con from 0.000337955 +++++++++++++++to 0.000337955
Heightened Def Con from 0.000337955 +++++++++++++++to 0.000337955
Heightened Def Con from 0.000337955 +++++++++++++++to 0.000337955
Heightened Def Con from 0.000337955 +++++++++++++++to 0.000337955
Heightened Def Con from 0.000337955 +++++++++++++++to 0.000337955
Heightened Def Con from 0.000337955 +++++++++++++++to 0.000337955
Heightened Def Con from 0.000337955 +++++++++++++++to 0.000337955
Heightened Def Con from 0.000337955 +++++++++++++++to 0.000337955
Heightened Def Con from 0.000337955 +++++++++++++++to 0.000337955
Heightened Def Con from 0.000337955 +++++++++++++++to 0.000337955
Heightened Def Con from 0.000337955 +++++++++++++++to 0.000337955
Heightened Def Con from 0.000337955 +++++++++++++++to 0.000337955
Heightened Def Con from 0.000337955 +++++++++++++++to 0.000337955
Heightened Def Con from 0.000337955 +++++++++++++++to 0.000337955
Heightened Def Con from 0.000337955 +++++++++++++++to 0.000337955
Heightened Def Con from 0.000337955 +++++++++++++++to 0.000337955
Heightened Def Con from 0.000337955 +++++++++++++++to 0.000337955
Heightened Def Con from 0.000337955 +++++++++++++++to 0.000337955
Heightened Def Con from 0.000337955 +++++++++++++++to 0.000337955
Heightened Def Con from 0.000337955 +++++++++++++++to 0.000337955
Heightened Def Con from 0.000337955 +++++++++++++++to 0.000337955
Heightened Def Con from 0.000337955 +++++++++++++++to 0.000337955
Heightened Def Con from 0.000337955 +++++++++++++++to 0.000337955
Heightened Def Con from 0.000337955 +++++++++++++++to 0.000337955
Heightened Def Con from 0.000337955 +++++++++++++++to 0.000337955
Heightened Def Con from 0.000337955 +++++++++++++++to 0.000337955
Heightened Def Con from 0.000337955 +++++++++++++++to 0.000337955
Heightened Def Con from 0.000337955 +++++++++++++++to 0.000337955
Heightened Def Con from 0.000337955 +++++++++++++++to 0.000337955
Heightened Def Con from 0.000337955 +++++++++++++++to 0.000337955
Heightened Def Con from 0.000337955 +++++++++++++++to 0.000337955
Heightened Def Con from 0.000337955 +++++++++++++++to 0.000337955
Heightened Def Con from 0.000337955 +++++++++++++++to 0.000337955
Heightened Def Con from 0.000337955 +++++++++++++++to 0.000337955
Heightened Def Con from 0.000337955 +++++++++++++++to 0.000337955
Heightened Def Con from 0.000337955 +++++++++++++++to 0.000337955
Heightened Def Con from 0.000337955 +++++++++++++++to 0.000337955
Heightened Def Con from 0.000337955 +++++++++++++++to 0.000337955
Heightened Def Con from 0.000337955 +++++++++++++++to 0.000337955
Heightened Def Con from 0.000337955 +++++++++++++++to 0.000337955
Heightened Def Con from 0.000337955 +++++++++++++++to 0.000337955
Heightened Def Con from 0.000337955 +++++++++++++++to 0.000337955
Heightened Def Con from 0.000337955 +++++++++++++++to 0.000337955
Heightened Def Con from 0.000337955 +++++++++++++++to 0.000337955
Heightened Def Con from 0.000337955 +++++++++++++++to 0.000337955
Heightened Def Con from 0.000337955 +++++++++++++++to 0.000337955
Heightened Def Con from 0.000337955 +++++++++++++++to 0.000337955
Heightened Def Con from 0.000337955 +++++++++++++++to 0.000337955
Heightened Def Con from 0.000337955 +++++++++++++++to 0.000337955
Heightened Def Con from 0.000337955 +++++++++++++++to 0.000337955
Heightened Def Con from 0.000337955 +++++++++++++++to 0.000337955
Heightened Def Con from 0.000337955 +++++++++++++++to 0.000337955
Heightened Def Con from 0.000337955 +++++++++++++++to 0.000337955
Heightened Def Con from 0.000337955 +++++++++++++++to 0.000337955
Heightened Def Con from 0.000337955 +++++++++++++++to 0.000337955
Heightened Def Con from 0.000337955 +++++++++++++++to 0.000337955
Heightened Def Con from 0.000337955 +++++++++++++++to 0.000337955
Heightened Def Con from 0.000337955 +++++++++++++++to 0.000337955
Heightened Def Con from 0.000337955 +++++++++++++++to 0.000337955
Heightened Def Con from 0.000337955 +++++++++++++++to 0.000337955
Heightened Def Con from 0.000337955 +++++++++++++++to 0.000337955
Heightened Def Con from 0.000337955 +++++++++++++++to 0.000337955
Heightened Def Con from 0.000337955 +++++++++++++++to 0.000337955
Heightened Def Con from 0.000337955 +++++++++++++++to 0.000337955
Heightened Def Con from 0.000337955 +++++++++++++++to 0.000337955
Heightened Def Con from 0.000337955 +++++++++++++++to 0.000337955
Heightened Def Con from 0.000337955 +++++++++++++++to 0.000337955
Heightened Def Con from 0.000337955 +++++++++++++++to 0.000337955
Heightened Def Con from 0.000337955 +++++++++++++++to 0.000337955
Heightened Def Con from 0.000337955 +++++++++++++++to 0.000337955
Heightened Def Con from 0.000337955 +++++++++++++++to 0.000337955
Heightened Def Con from 0.000337955 +++++++++++++++to 0.000337955
Heightened Def Con from 0.000337955 +++++++++++++++to 0.000337955
Heightened Def Con from 0.000337955 +++++++++++++++to 0.000337955
Heightened Def Con from 0.000337955 +++++++++++++++to 0.000337955
Heightened Def Con from 0.000337955 +++++++++++++++to 0.000337955
Heightened Def Con from 0.000337955 +++++++++++++++to 0.000337955
Heightened Def Con from 0.000337955 +++++++++++++++to 0.000337955
Heightened Def Con from 0.000337955 +++++++++++++++to 0.000337955
Heightened Def Con from 0.000337955 +++++++++++++++to 0.000337955
Heightened Def Con from 0.000337955 +++++++++++++++to 0.000337955
Heightened Def Con from 0.000337955 +++++++++++++++to 0.000337955
Heightened Def Con from 0.000337955 +++++++++++++++to 0.000337955
Heightened Def Con from 0.000337955 +++++++++++++++to 0.000337955
Heightened Def Con from 0.000337955 +++++++++++++++to 0.000337955
Heightened Def Con from 0.000337955 +++++++++++++++to 0.000337955
Heightened Def Con from 0.000337955 +++++++++++++++to 0.000337955
Heightened Def Con from 0.000337955 +++++++++++++++to 0.000337955
Heightened Def Con from 0.000337955 +++++++++++++++to 0.000337955
Heightened Def Con from 0.000337955 +++++++++++++++to 0.000337955
Heightened Def Con from 0.000337955 +++++++++++++++to 0.000337955
Heightened Def Con from 0.000337955 +++++++++++++++to 0.000337955
Heightened Def Con from 0.000337955 +++++++++++++++to 0.000337955
Heightened Def Con from 0.000337955 +++++++++++++++to 0.000337955
Heightened Def Con from 0.000337955 +++++++++++++++to 0.000337955
Heightened Def Con from 0.000337955 +++++++++++++++to 0.000337955
Heightened Def Con from 0.000337955 +++++++++++++++to 0.000337955
Heightened Def Con from 0.000337955 +++++++++++++++to 0.000337955
Heightened Def Con from 0.000337955 +++++++++++++++to 0.000337955
Heightened Def Con from 0.000337955 +++++++++++++++to 0.000337955
Heightened Def Con from 0.000337955 +++++++++++++++to 0.000337955
Heightened Def Con from 0.000337955 +++++++++++++++to 0.000337955
Heightened Def Con from 0.000337955 +++++++++++++++to 0.000337955
Heightened Def Con from 0.000337955 +++++++++++++++to 0.000337955
Heightened Def Con from 0.000337955 +++++++++++++++to 0.000337955
Heightened Def Con from 0.000337955 +++++++++++++++to 0.000337955
Heightened Def Con from 0.000337955 +++++++++++++++to 0.000337955
Heightened Def Con from 0.000337955 +++++++++++++++to 0.000337955
Heightened Def Con from 0.000337955 +++++++++++++++to 0.000337955
Heightened Def Con from 0.000337955 +++++++++++++++to 0.000337955
Heightened Def Con from 0.000337955 +++++++++++++++to 0.000337955
Heightened Def Con from 0.000337955 +++++++++++++++to 0.000337955
Heightened Def Con from 0.000337955 +++++++++++++++to 0.000337955
Heightened Def Con from 0.000337955 +++++++++++++++to 0.000337955
Heightened Def Con from 0.000337955 +++++++++++++++to 0.000337955
Heightened Def Con from 0.000337955 +++++++++++++++to 0.000337955
Heightened Def Con from 0.000337955 +++++++++++++++to 0.000337955
Heightened Def Con from 0.000337955 +++++++++++++++to 0.000337955
Heightened Def Con from 0.000337955 +++++++++++++++to 0.000337955
Heightened Def Con from 0.000337955 +++++++++++++++to 0.000337955
Heightened Def Con from 0.000337955 +++++++++++++++to 0.000337955
Heightened Def Con from 0.000337955 +++++++++++++++to 0.000337955
Heightened Def Con from 0.000337955 +++++++++++++++to 0.000337955
Heightened Def Con from 0.000337955 +++++++++++++++to 0.000337955
Heightened Def Con from 0.000337955 +++++++++++++++to 0.000337955
Heightened Def Con from 0.000337955 +++++++++++++++to 0.000337955
Heightened Def Con from 0.000337955 +++++++++++++++to 0.000337955
Heightened Def Con from 0.000337955 +++++++++++++++to 0.000337955
Heightened Def Con from 0.000337955 +++++++++++++++to 0.000337955
Heightened Def Con from 0.000337955 +++++++++++++++to 0.000337955
Heightened Def Con from 0.000337955 +++++++++++++++to 0.000337955
Heightened Def Con from 0.000337955 +++++++++++++++to 0.000337955
Heightened Def Con from 0.000337955 +++++++++++++++to 0.000337955
Heightened Def Con from 0.000337955 +++++++++++++++to 0.000337955
Heightened Def Con from 0.000337955 +++++++++++++++to 0.000337955
Heightened Def Con from 0.000337955 +++++++++++++++to 0.000337955
Heightened Def Con from 0.000337955 +++++++++++++++to 0.000337955
Heightened Def Con from 0.000337955 +++++++++++++++to 0.000337955
Heightened Def Con from 0.000337955 +++++++++++++++to 0.000337955
Heightened Def Con from 0.000337955 +++++++++++++++to 0.000337955
Heightened Def Con from 0.000337955 +++++++++++++++to 0.000337955
Heightened Def Con from 0.000337955 +++++++++++++++to 0.000337955
Heightened Def Con from 0.000337955 +++++++++++++++to 0.000337955
Heightened Def Con from 0.000337955 +++++++++++++++to 0.000337955
Heightened Def Con from 0.000337955 +++++++++++++++to 0.000337955
Heightened Def Con from 0.000337955 +++++++++++++++to 0.000337955
Heightened Def Con from 0.000337955 +++++++++++++++to 0.000337955
Heightened Def Con from 0.000337955 +++++++++++++++to 0.000337955
Heightened Def Con from 0.000337955 +++++++++++++++to 0.000337955
Heightened Def Con from 0.000337955 +++++++++++++++to 0.000337955
Heightened Def Con from 0.000337955 +++++++++++++++to 0.000337955
Heightened Def Con from 0.000337955 +++++++++++++++to 0.000337955
Heightened Def Con from 0.000337955 +++++++++++++++to 0.000337955
Heightened Def Con from 0.000337955 +++++++++++++++to 0.000337955
Heightened Def Con from 0.000337955 +++++++++++++++to 0.000337955
Heightened Def Con from 0.000337955 +++++++++++++++to 0.000337955
Heightened Def Con from 0.000337955 +++++++++++++++to 0.000337955
Heightened Def Con from 0.000337955 +++++++++++++++to 0.000337955
Heightened Def Con from 0.000337955 +++++++++++++++to 0.000337955
Heightened Def Con from 0.000337955 +++++++++++++++to 0.000337955
Heightened Def Con from 0.000337955 +++++++++++++++to 0.000337955
Heightened Def Con from 0.000337955 +++++++++++++++to 0.000337955
Heightened Def Con from 0.000337955 +++++++++++++++to 0.000337955
Heightened Def Con from 0.000337955 +++++++++++++++to 0.000337955
Heightened Def Con from 0.000337955 +++++++++++++++to 0.000337955
Heightened Def Con from 0.000337955 +++++++++++++++to 0.000337955
Heightened Def Con from 0.000337955 +++++++++++++++to 0.000337955
Heightened Def Con from 0.000337955 +++++++++++++++to 0.000337955
Heightened Def Con from 0.000337955 +++++++++++++++to 0.000337955
Heightened Def Con from 0.000337955 +++++++++++++++to 0.000337955
Heightened Def Con from 0.000337955 +++++++++++++++to 0.000337955
Heightened Def Con from 0.000337955 +++++++++++++++to 0.000337955
Heightened Def Con from 0.000337955 +++++++++++++++to 0.000337955
Heightened Def Con from 0.000337955 +++++++++++++++to 0.000337955
Heightened Def Con from 0.000337955 +++++++++++++++to 0.000337955
Heightened Def Con from 0.000337955 +++++++++++++++to 0.000337955
Heightened Def Con from 0.000337955 +++++++++++++++to 0.000337955
Heightened Def Con from 0.000337955 +++++++++++++++to 0.000337955
Heightened Def Con from 0.000337955 +++++++++++++++to 0.000337955
Heightened Def Con from 0.000337955 +++++++++++++++to 0.000337955
Heightened Def Con from 0.000337955 +++++++++++++++to 0.000337955
Heightened Def Con from 0.000337955 +++++++++++++++to 0.000337955
Heightened Def Con from 0.000337955 +++++++++++++++to 0.000337955
Heightened Def Con from 0.000337955 +++++++++++++++to 0.000337955
Heightened Def Con from 0.000337955 +++++++++++++++to 0.000337955
Heightened Def Con from 0.000337955 +++++++++++++++to 0.000337955
Heightened Def Con from 0.000337955 +++++++++++++++to 0.000337955
Heightened Def Con from 0.000337955 +++++++++++++++to 0.000337955
Heightened Def Con from 0.000337955 +++++++++++++++to 0.000337955
Heightened Def Con from 0.000337955 +++++++++++++++to 0.000337955
Heightened Def Con from 0.000337955 +++++++++++++++to 0.000337955
Heightened Def Con from 0.000337955 +++++++++++++++to 0.000337955
Heightened Def Con from 0.000337955 +++++++++++++++to 0.000337955
Heightened Def Con from 0.000337955 +++++++++++++++to 0.000337955
Heightened Def Con from 0.000337955 +++++++++++++++to 0.000337955
Heightened Def Con from 0.000337955 +++++++++++++++to 0.000337955
Heightened Def Con from 0.000337955 +++++++++++++++to 0.000337955
Heightened Def Con from 0.000337955 +++++++++++++++to 0.000337955
Heightened Def Con from 0.000337955 +++++++++++++++to 0.000337955
Heightened Def Con from 0.000337955 +++++++++++++++to 0.000337955
Heightened Def Con from 0.000337955 +++++++++++++++to 0.000337955
Heightened Def Con from 0.000337955 +++++++++++++++to 0.000337955
Heightened Def Con from 0.000337955 +++++++++++++++to 0.000337955
Heightened Def Con from 0.000337955 +++++++++++++++to 0.000337955
Heightened Def Con from 0.000337955 +++++++++++++++to 0.000337955
Heightened Def Con from 0.000337955 +++++++++++++++to 0.000337955
Heightened Def Con from 0.000337955 +++++++++++++++to 0.000337955
Heightened Def Con from 0.000337955 +++++++++++++++to 0.000337955
Heightened Def Con from 0.000337955 +++++++++++++++to 0.000337955
Heightened Def Con from 0.000337955 +++++++++++++++to 0.000337955
Heightened Def Con from 0.000337955 +++++++++++++++to 0.000337955
Heightened Def Con from 0.000337955 +++++++++++++++to 0.000337955
Heightened Def Con from 0.000337955 +++++++++++++++to 0.000337955
Heightened Def Con from 0.000337955 +++++++++++++++to 0.000337955
Heightened Def Con from 0.000337955 +++++++++++++++to 0.000337955
Heightened Def Con from 0.000337955 +++++++++++++++to 0.000337955
Heightened Def Con from 0.000337955 +++++++++++++++to 0.000337955
Heightened Def Con from 0.000337955 +++++++++++++++to 0.000337955
Heightened Def Con from 0.000337955 +++++++++++++++to 0.000337955
Heightened Def Con from 0.000337955 +++++++++++++++to 0.000337955
[...]
Heightened Def Con from 0.000337955 +++++++++++++++to 0.000337955
Heightened Def Con from 0.000337955 +++++++++++++++to 0.000337955
Heightened Def Con from 0.000337955 +++++++++++++++to 0.000337955
Heightened Def Con from 0.000337955 +++++++++++++++to 0.000337955
Heightened Def Con from 0.000337955 +++++++++++++++to 0.000337955
Heightened Def Con from 0.000337955 +++++++++++++++to 0.000337955
Heightened Def Con from 0.000337955 +++++++++++++++to 0.000337955
Heightened Def Con from 0.000337955 +++++++++++++++to 0.000337955
Heightened Def Con from 0.000337955 +++++++++++++++to 0.000337955
Heightened Def Con from 0.000337955 +++++++++++++++to 0.000337955
Heightened Def Con from 0.000337955 +++++++++++++++to 0.000337955
Heightened Def Con from 0.000337955 +++++++++++++++to 0.000337955
Heightened Def Con from 0.000337955 +++++++++++++++to 0.000337955
Heightened Def Con from 0.000337955 +++++++++++++++to 0.000337955
Heightened Def Con from 0.000337955 +++++++++++++++to 0.000337955
Heightened Def Con from 0.000337955 +++++++++++++++to 0.000337955
Heightened Def Con from 0.000337955 +++++++++++++++to 0.000337955
Heightened Def Con from 0.000337955 +++++++++++++++to 0.000337955
Heightened Def Con from 0.000337955 +++++++++++++++to 0.000337955
Heightened Def Con from 0.000337955 +++++++++++++++to 0.000337955
Heightened Def Con from 0.000337955 +++++++++++++++to 0.000337955
Heightened Def Con from 0.000337955 +++++++++++++++to 0.000337955
Heightened Def Con from 0.000337955 +++++++++++++++to 0.000337955
Heightened Def Con from 0.000337955 +++++++++++++++to 0.000337955
Heightened Def Con from 0.000337955 +++++++++++++++to 0.000337955
Heightened Def Con from 0.000337955 +++++++++++++++to 0.000337955
Heightened Def Con from 0.000337955 +++++++++++++++to 0.000337955
Heightened Def Con from 0.000337955 +++++++++++++++to 0.000337955
Heightened Def Con from 0.000337955 +++++++++++++++to 0.000337955
Heightened Def Con from 0.000337955 +++++++++++++++to 0.000337955
Heightened Def Con from 0.000337955 +++++++++++++++to 0.000337955
Heightened Def Con from 0.000337955 +++++++++++++++to 0.000337955
Heightened Def Con from 0.000337955 +++++++++++++++to 0.000337955
Heightened Def Con from 0.000337955 +++++++++++++++to 0.000337955
Heightened Def Con from 0.000337955 +++++++++++++++to 0.000337955
Heightened Def Con from 0.000337955 +++++++++++++++to 0.000337955
Heightened Def Con from 0.000337955 +++++++++++++++to 0.000337955
Heightened Def Con from 0.000337955 +++++++++++++++to 0.000337955
Heightened Def Con from 0.000337955 +++++++++++++++to 0.000337955
Heightened Def Con from 0.000337955 +++++++++++++++to 0.000337955
Heightened Def Con from 0.000337955 +++++++++++++++to 0.000337955
Heightened Def Con from 0.000337955 +++++++++++++++to 0.000337955
Heightened Def Con from 0.000337955 +++++++++++++++to 0.000337955
Heightened Def Con from 0.000337955 +++++++++++++++to 0.000337955
Heightened Def Con from 0.000337955 +++++++++++++++to 0.000337955
Heightened Def Con from 0.000337955 +++++++++++++++to 0.000337955
Heightened Def Con from 0.000337955 +++++++++++++++to 0.000337955
Heightened Def Con from 0.000337955 +++++++++++++++to 0.000337955
Heightened Def Con from 0.000337955 +++++++++++++++to 0.000337955
Heightened Def Con from 0.000337955 +++++++++++++++to 0.000337955
Heightened Def Con from 0.000337955 +++++++++++++++to 0.000337955
Heightened Def Con from 0.000337955 +++++++++++++++to 0.000337955
Heightened Def Con from 0.000337955 +++++++++++++++to 0.000337955
Heightened Def Con from 0.000337955 +++++++++++++++to 0.000337955
Heightened Def Con from 0.000337955 +++++++++++++++to 0.000337955
Heightened Def Con from 0.000337955 +++++++++++++++to 0.000337955
Heightened Def Con from 0.000337955 +++++++++++++++to 0.000337955
Heightened Def Con from 0.000337955 +++++++++++++++to 0.000337955
Heightened Def Con from 0.000337955 +++++++++++++++to 0.000337955
Heightened Def Con from 0.000337955 +++++++++++++++to 0.000337955
Heightened Def Con from 0.000337955 +++++++++++++++to 0.000337955
Heightened Def Con from 0.000337955 +++++++++++++++to 0.000337955
Heightened Def Con from 0.000337955 +++++++++++++++to 0.000337955
Heightened Def Con from 0.000337955 +++++++++++++++to 0.000337955
Heightened Def Con from 0.000337955 +++++++++++++++to 0.000337955
Heightened Def Con from 0.000337955 +++++++++++++++to 0.000337955
Heightened Def Con from 0.000337955 +++++++++++++++to 0.000337955
Heightened Def Con from 0.000337955 +++++++++++++++to 0.000337955
Heightened Def Con from 0.000337955 +++++++++++++++to 0.000337955
Heightened Def Con from 0.000337955 +++++++++++++++to 0.000337955
Heightened Def Con from 0.000337955 +++++++++++++++to 0.000337955
Heightened Def Con from 0.000337955 +++++++++++++++to 0.000337955
Heightened Def Con from 0.000337955 +++++++++++++++to 0.000337955
Heightened Def Con from 0.000337955 +++++++++++++++to 0.000337955
Heightened Def Con from 0.000337955 +++++++++++++++to 0.000337955
Heightened Def Con from 0.000337955 +++++++++++++++to 0.000337955
Heightened Def Con from 0.000337955 +++++++++++++++to 0.000337955
Heightened Def Con from 0.000337955 +++++++++++++++to 0.000337955
Heightened Def Con from 0.000337955 +++++++++++++++to 0.000337955
Heightened Def Con from 0.000337955 +++++++++++++++to 0.000337955
Heightened Def Con from 0.000337955 +++++++++++++++to 0.000337955
Heightened Def Con from 0.000337955 +++++++++++++++to 0.000337955
Heightened Def Con from 0.000337955 +++++++++++++++to 0.000337955
Heightened Def Con from 0.000337955 +++++++++++++++to 0.000337955
Heightened Def Con from 0.000337955 +++++++++++++++to 0.000337955
Heightened Def Con from 0.000337955 +++++++++++++++to 0.000337955
Heightened Def Con from 0.000337955 +++++++++++++++to 0.000337955
Heightened Def Con from 0.000337955 +++++++++++++++to 0.000337955
Heightened Def Con from 0.000337955 +++++++++++++++to 0.000337955
Heightened Def Con from 0.000337955 +++++++++++++++to 0.000337955
Heightened Def Con from 0.000337955 +++++++++++++++to 0.000337955
Heightened Def Con from 0.000337955 +++++++++++++++to 0.000337955
Heightened Def Con from 0.000337955 +++++++++++++++to 0.000337955
Heightened Def Con from 0.000337955 +++++++++++++++to 0.000337955
Heightened Def Con from 0.000337955 +++++++++++++++to 0.000337955
Heightened Def Con from 0.000337955 +++++++++++++++to 0.000337955
Heightened Def Con from 0.000337955 +++++++++++++++to 0.000337955
Heightened Def Con from 0.000337955 +++++++++++++++to 0.000337955
Heightened Def Con from 0.000337955 +++++++++++++++to 0.000337955
Heightened Def Con from 0.000337955 +++++++++++++++to 0.000337955
Heightened Def Con from 0.000337955 +++++++++++++++to 0.000337955
Heightened Def Con from 0.000337955 +++++++++++++++to 0.000337955
Heightened Def Con from 0.000337955 +++++++++++++++to 0.000337955
Heightened Def Con from 0.000337955 +++++++++++++++to 0.000337955
Heightened Def Con from 0.000337955 +++++++++++++++to 0.000337955
Heightened Def Con from 0.000337955 +++++++++++++++to 0.000337955
Heightened Def Con from 0.000337955 +++++++++++++++to 0.000337955
Heightened Def Con from 0.000337955 +++++++++++++++to 0.000337955
Heightened Def Con from 0.000337955 +++++++++++++++to 0.000337955
Heightened Def Con from 0.000337955 +++++++++++++++to 0.000337955
Heightened Def Con from 0.000337955 +++++++++++++++to 0.000337955
Heightened Def Con from 0.000337955 +++++++++++++++to 0.000337955
Heightened Def Con from 0.000337955 +++++++++++++++to 0.000337955
Heightened Def Con from 0.000337955 +++++++++++++++to 0.000337955
Heightened Def Con from 0.000337955 +++++++++++++++to 0.000337955
Heightened Def Con from 0.000337955 +++++++++++++++to 0.000337955
Heightened Def Con from 0.000337955 +++++++++++++++to 0.000337955
Heightened Def Con from 0.000337955 +++++++++++++++to 0.000337955
Heightened Def Con from 0.000337955 +++++++++++++++to 0.000337955
Heightened Def Con from 0.000337955 +++++++++++++++to 0.000337955
Heightened Def Con from 0.000337955 +++++++++++++++to 0.000337955
Heightened Def Con from 0.000337955 +++++++++++++++to 0.000337955
Heightened Def Con from 0.000337955 +++++++++++++++to 0.000337955
Heightened Def Con from 0.000337955 +++++++++++++++to 0.000337955
Heightened Def Con from 0.000337955 +++++++++++++++to 0.000337955
Heightened Def Con from 0.000337955 +++++++++++++++to 0.000337955
Heightened Def Con from 0.000337955 +++++++++++++++to 0.000337955
Heightened Def Con from 0.000337955 +++++++++++++++to 0.000337955
Heightened Def Con from 0.000337955 +++++++++++++++to 0.000337955
Heightened Def Con from 0.000337955 +++++++++++++++to 0.000337955
Heightened Def Con from 0.000337955 +++++++++++++++to 0.000337955
Heightened Def Con from 0.000337955 +++++++++++++++to 0.000337955
Heightened Def Con from 0.000337955 +++++++++++++++to 0.000337955
Heightened Def Con from 0.000337955 +++++++++++++++to 0.000337955
Heightened Def Con from 0.000337955 +++++++++++++++to 0.000337955
Heightened Def Con from 0.000337955 +++++++++++++++to 0.000337955
Heightened Def Con from 0.000337955 +++++++++++++++to 0.000337955
Heightened Def Con from 0.000337955 +++++++++++++++to 0.000337955
Heightened Def Con from 0.000337955 +++++++++++++++to 0.000337955
Heightened Def Con from 0.000337955 +++++++++++++++to 0.000337955
Heightened Def Con from 0.000337955 +++++++++++++++to 0.000337955
Heightened Def Con from 0.000337955 +++++++++++++++to 0.000337955
Heightened Def Con from 0.000337955 +++++++++++++++to 0.000337955
Heightened Def Con from 0.000337955 +++++++++++++++to 0.000337955
Heightened Def Con from 0.000337955 +++++++++++++++to 0.000337955
Heightened Def Con from 0.000337955 +++++++++++++++to 0.000337955
Heightened Def Con from 0.000337955 +++++++++++++++to 0.000337955
Heightened Def Con from 0.000337955 +++++++++++++++to 0.000337955
Heightened Def Con from 0.000337955 +++++++++++++++to 0.000337955
Heightened Def Con from 0.000337955 +++++++++++++++to 0.000337955
Heightened Def Con from 0.000337955 +++++++++++++++to 0.000337955
Heightened Def Con from 0.000337955 +++++++++++++++to 0.000337955
Heightened Def Con from 0.000337955 +++++++++++++++to 0.000337955
Heightened Def Con from 0.000337955 +++++++++++++++to 0.000337955
Heightened Def Con from 0.000337955 +++++++++++++++to 0.000337955
Heightened Def Con from 0.000337955 +++++++++++++++to 0.000337955
Heightened Def Con from 0.000337955 +++++++++++++++to 0.000337955
Heightened Def Con from 0.000337955 +++++++++++++++to 0.000337955
Heightened Def Con from 0.000337955 +++++++++++++++to 0.000337955
Heightened Def Con from 0.000337955 +++++++++++++++to 0.000337955
Heightened Def Con from 0.000337955 +++++++++++++++to 0.000337955
Heightened Def Con from 0.000337955 +++++++++++++++to 0.000337955
Heightened Def Con from 0.000337955 +++++++++++++++to 0.000337955
Heightened Def Con from 0.000337955 +++++++++++++++to 0.000337955
Heightened Def Con from 0.000337955 +++++++++++++++to 0.000337955
Heightened Def Con from 0.000337955 +++++++++++++++to 0.000337955
Heightened Def Con from 0.000337955 +++++++++++++++to 0.000337955
Heightened Def Con from 0.000337955 +++++++++++++++to 0.000337955
Heightened Def Con from 0.000337955 +++++++++++++++to 0.000337955
Heightened Def Con from 0.000337955 +++++++++++++++to 0.000337955
Heightened Def Con from 0.000337955 +++++++++++++++to 0.000337955
Heightened Def Con from 0.000337955 +++++++++++++++to 0.000337955
Heightened Def Con from 0.000337955 +++++++++++++++to 0.000337955
Heightened Def Con from 0.000337955 +++++++++++++++to 0.000337955
Heightened Def Con from 0.000337955 +++++++++++++++to 0.000337955
Heightened Def Con from 0.000337955 +++++++++++++++to 0.000337955
Heightened Def Con from 0.000337955 +++++++++++++++to 0.000337955
Heightened Def Con from 0.000337955 +++++++++++++++to 0.000337955
Heightened Def Con from 0.000337955 +++++++++++++++to 0.000337955
Heightened Def Con from 0.000337955 +++++++++++++++to 0.000337955
Heightened Def Con from 0.000337955 +++++++++++++++to 0.000337955
Heightened Def Con from 0.000337955 +++++++++++++++to 0.000337955
Heightened Def Con from 0.000337955 +++++++++++++++to 0.000337955
Heightened Def Con from 0.000337955 +++++++++++++++to 0.000337955
Heightened Def Con from 0.000337955 +++++++++++++++to 0.000337955
Heightened Def Con from 0.000337955 +++++++++++++++to 0.000337955
Heightened Def Con from 0.000337955 +++++++++++++++to 0.000337955
Heightened Def Con from 0.000337955 +++++++++++++++to 0.000337955
Heightened Def Con from 0.000337955 +++++++++++++++to 0.000337955
Heightened Def Con from 0.000337955 +++++++++++++++to 0.000337955
Heightened Def Con from 0.000337955 +++++++++++++++to 0.000337955
Heightened Def Con from 0.000337955 +++++++++++++++to 0.000337955
Heightened Def Con from 0.000337955 +++++++++++++++to 0.000337955
Heightened Def Con from 0.000337955 +++++++++++++++to 0.000337955
Heightened Def Con from 0.000337955 +++++++++++++++to 0.000337955
Heightened Def Con from 0.000337955 +++++++++++++++to 0.000337955
Heightened Def Con from 0.000337955 +++++++++++++++to 0.000337955
Heightened Def Con from 0.000337955 +++++++++++++++to 0.000337955
Heightened Def Con from 0.000337955 +++++++++++++++to 0.000337955
Heightened Def Con from 0.000337955 +++++++++++++++to 0.000337955
Heightened Def Con from 0.000337955 +++++++++++++++to 0.000337955
Heightened Def Con from 0.000337955 +++++++++++++++to 0.000337955
Heightened Def Con from 0.000337955 +++++++++++++++to 0.000337955
Heightened Def Con from 0.000337955 +++++++++++++++to 0.000337955
Heightened Def Con from 0.000337955 +++++++++++++++to 0.000337955
Heightened Def Con from 0.000337955 +++++++++++++++to 0.000337955
Heightened Def Con from 0.000337955 +++++++++++++++to 0.000337955
Heightened Def Con from 0.000337955 +++++++++++++++to 0.000337955
Heightened Def Con from 0.000337955 +++++++++++++++to 0.000337955
Heightened Def Con from 0.000337955 +++++++++++++++to 0.000337955
Heightened Def Con from 0.000337955 +++++++++++++++to 0.000337955
Heightened Def Con from 0.000337955 +++++++++++++++to 0.000337955
Heightened Def Con from 0.000337955 +++++++++++++++to 0.000337955
Heightened Def Con from 0.000337955 +++++++++++++++to 0.000337955
Heightened Def Con from 0.000337955 +++++++++++++++to 0.000337955
Heightened Def Con from 0.000337955 +++++++++++++++to 0.000337955
Heightened Def Con from 0.000337955 +++++++++++++++to 0.000337955
Heightened Def Con from 0.000337955 +++++++++++++++to 0.000337955
Heightened Def Con from 0.000337955 +++++++++++++++to 0.000337955
Heightened Def Con from 0.000337955 +++++++++++++++to 0.000337955
Heightened Def Con from 0.000337955 +++++++++++++++to 0.000337955
Heightened Def Con from 0.000337955 +++++++++++++++to 0.000337955
Heightened Def Con from 0.000337955 +++++++++++++++to 0.000337955
Heightened Def Con from 0.000337955 +++++++++++++++to 0.000337955
Heightened Def Con from 0.000337955 +++++++++++++++to 0.000337955
Heightened Def Con from 0.000337955 +++++++++++++++to 0.000337955
Heightened Def Con from 0.000337955 +++++++++++++++to 0.000337955
Heightened Def Con from 0.000337955 +++++++++++++++to 0.000337955
Heightened Def Con from 0.000337955 +++++++++++++++to 0.000337955
Heightened Def Con from 0.000337955 +++++++++++++++to 0.000337955
Heightened Def Con from 0.000337955 +++++++++++++++to 0.000337955
Heightened Def Con from 0.000337955 +++++++++++++++to 0.000337955
Heightened Def Con from 0.000337955 +++++++++++++++to 0.000337955
Heightened Def Con from 0.000337955 +++++++++++++++to 0.000337955
Heightened Def Con from 0.000337955 +++++++++++++++to 0.000337955
Heightened Def Con from 0.000337955 +++++++++++++++to 0.000337955
Heightened Def Con from 0.000337955 +++++++++++++++to 0.000337955
Heightened Def Con from 0.000337955 +++++++++++++++to 0.000337955
Heightened Def Con from 0.000337955 +++++++++++++++to 0.000337955
Heightened Def Con from 0.000337955 +++++++++++++++to 0.000337955
Heightened Def Con from 0.000337955 +++++++++++++++to 0.000337955
Heightened Def Con from 0.000337955 +++++++++++++++to 0.000337955
Heightened Def Con from 0.000337955 +++++++++++++++to 0.000337955
Heightened Def Con from 0.000337955 +++++++++++++++to 0.000337955
Heightened Def Con from 0.000337955 +++++++++++++++to 0.000337955
Heightened Def Con from 0.000337955 +++++++++++++++to 0.000337955
Heightened Def Con from 0.000337955 +++++++++++++++to 0.000337955
Heightened Def Con from 0.000337955 +++++++++++++++to 0.000337955
Heightened Def Con from 0.000337955 +++++++++++++++to 0.000337955
Heightened Def Con from 0.000337955 +++++++++++++++to 0.000337955
Heightened Def Con from 0.000337955 +++++++++++++++to 0.000337955
Heightened Def Con from 0.000337955 +++++++++++++++to 0.000337955
Heightened Def Con from 0.000337955 +++++++++++++++to 0.000337955
Heightened Def Con from 0.000337955 +++++++++++++++to 0.000337955
Heightened Def Con from 0.000337955 +++++++++++++++to 0.000337955
Heightened Def Con from 0.000337955 +++++++++++++++to 0.000337955
Heightened Def Con from 0.000337955 +++++++++++++++to 0.000337955
Heightened Def Con from 0.000337955 +++++++++++++++to 0.000337955
Heightened Def Con from 0.000337955 +++++++++++++++to 0.000337955
Heightened Def Con from 0.000337955 +++++++++++++++to 0.000337955
Heightened Def Con from 0.000337955 +++++++++++++++to 0.000337955
Heightened Def Con from 0.000337955 +++++++++++++++to 0.000337955
Heightened Def Con from 0.000337955 +++++++++++++++to 0.000337955
Heightened Def Con from 0.000337955 +++++++++++++++to 0.000337955
Heightened Def Con from 0.000337955 +++++++++++++++to 0.000337955
Heightened Def Con from 0.000337955 +++++++++++++++to 0.000337955
Heightened Def Con from 0.000337955 +++++++++++++++to 0.000337955
Heightened Def Con from 0.000337955 +++++++++++++++to 0.000337955
Heightened Def Con from 0.000337955 +++++++++++++++to 0.000337955
Heightened Def Con from 0.000337955 +++++++++++++++to 0.000337955
Heightened Def Con from 0.000337955 +++++++++++++++to 0.000337955
Heightened Def Con from 0.000337955 +++++++++++++++to 0.000337955
Heightened Def Con from 0.000337955 +++++++++++++++to 0.000337955
Heightened Def Con from 0.000337955 +++++++++++++++to 0.000337955
Heightened Def Con from 0.000337955 +++++++++++++++to 0.000337955
Heightened Def Con from 0.000337955 +++++++++++++++to 0.000337955
Heightened Def Con from 0.000337955 +++++++++++++++to 0.000337955
Heightened Def Con from 0.000337955 +++++++++++++++to 0.000337955
Heightened Def Con from 0.000337955 +++++++++++++++to 0.000337955
Heightened Def Con from 0.000337955 +++++++++++++++to 0.000337955
Heightened Def Con from 0.000337955 +++++++++++++++to 0.000337955
Heightened Def Con from 0.000337955 +++++++++++++++to 0.000337955
Heightened Def Con from 0.000337955 +++++++++++++++to 0.000337955
Heightened Def Con from 0.000337955 +++++++++++++++to 0.000337955
Heightened Def Con from 0.000337955 +++++++++++++++to 0.000337955
Heightened Def Con from 0.000337955 +++++++++++++++to 0.000337955
Heightened Def Con from 0.000337955 +++++++++++++++to 0.000337955
Heightened Def Con from 0.000337955 +++++++++++++++to 0.000337955
Heightened Def Con from 0.000337955 +++++++++++++++to 0.000337955
Heightened Def Con from 0.000337955 +++++++++++++++to 0.000337955
Heightened Def Con from 0.000337955 +++++++++++++++to 0.000337955
Heightened Def Con from 0.000337955 +++++++++++++++to 0.000337955
Heightened Def Con from 0.000337955 +++++++++++++++to 0.000337955
Heightened Def Con from 0.000337955 +++++++++++++++to 0.000337955
Heightened Def Con from 0.000337955 +++++++++++++++to 0.000337955
Heightened Def Con from 0.000337955 ++++++++to 0.000337955

Date: Tue Mar 19 11:44:41 2024
Total elapsed time: 174.885 seconds.

tnom = 27
temp = 27
method = modified trap
totiter = 63858402
traniter = 63858402
tranpoints = 5829325
accept = 556947
rejected = 5796333
matrix size = 12
fillins = 0
solver = Normal
Avg thread counts: 1.0/1.0/1.0/1.0
Matrix Compiler1: 536 bytes object code size  0.4/0.4/[0.3]
Matrix Compiler2: 812 bytes object code size  0.3/0.4/[0.2]

