Circuit: * C:\Users\matta\OneDrive\Uni\QUT\Y3S1\EGB240\TwoToneBuzzer\TwoTone(Trans).asc

Warning: Multiple definitions of model "2scr375p" Type: BJT
Warning: Multiple definitions of model "bc857b" Type: BJT
Warning: Multiple definitions of model "bc847c" Type: BJT
Warning: Multiple definitions of model "bc847b" Type: BJT
Per .tran options, skipping operating point for transient analysis.

Date: Mon Mar 18 12:23:30 2024
Total elapsed time: 0.128 seconds.

tnom = 27
temp = 27
method = modified trap
totiter = 10221
traniter = 10221
tranpoints = 4699
accept = 3568
rejected = 1131
matrix size = 12
fillins = 8
solver = Normal
Avg thread counts: 1.1/1.1/1.1/1.1
Matrix Compiler1: 1.38 KB object code size  0.5/0.3/[0.2]
Matrix Compiler2: 1.16 KB object code size  0.2/0.3/[0.2]

